data_created_by_vaspkit_code
_audit_creation_date          Mon Apr 10 11:33:23 2023
_pd_phase_name                     'CIF files'
_cell_length_a                    13.29870033
_cell_length_b                    13.29870033
_cell_length_c                    30.00000000
_cell_angle_alpha                     90.0000
_cell_angle_beta                      90.0000
_cell_angle_gamma                    120.0000
_symmetry_space_group_name_H-M           'P 1'
_symmetry_Int_Tables_number            1
loop_
_symmetry_equiv_pos_as_xyz
    'x, y, z'
loop_
   _atom_site_label
   _atom_site_occupancy
   _atom_site_fract_x
   _atom_site_fract_y
   _atom_site_fract_z
   _atom_site_thermal_displace_type
   _atom_site_U_iso_or_equiv
   _atom_site_type_symbol
   Se001  1.0    0.089745    0.168911    0.151781  Uiso   1.00  Se
   Se002  1.0    0.089786    0.418911    0.151022  Uiso   1.00  Se
   Se003  1.0    0.090275    0.669970    0.150765  Uiso   1.00  Se
   Se004  1.0    0.089991    0.920698    0.151578  Uiso   1.00  Se
   Se005  1.0    0.335596    0.169130    0.152469  Uiso   1.00  Se
   Se006  1.0    0.336137    0.417880    0.152836  Uiso   1.00  Se
   Se007  1.0    0.336023    0.666056    0.152052  Uiso   1.00  Se
   Se008  1.0    0.334979    0.916713    0.151186  Uiso   1.00  Se
   Se009  1.0    0.579510    0.164444    0.149999  Uiso   1.00  Se
   Se010  1.0    0.581585    0.417232    0.151514  Uiso   1.00  Se
   Se011  1.0    0.582558    0.665819    0.151668  Uiso   1.00  Se
   Se012  1.0    0.581981    0.913940    0.150684  Uiso   1.00  Se
   Se013  1.0    0.835500    0.167536    0.146421  Uiso   1.00  Se
   Se014  1.0    0.836129    0.418336    0.145830  Uiso   1.00  Se
   Se015  1.0    0.836317    0.668176    0.147776  Uiso   1.00  Se
   Se016  1.0    0.836140    0.916992    0.148502  Uiso   1.00  Se
   Se017  1.0    0.167939    0.081137    0.262279  Uiso   1.00  Se
   Se018  1.0    0.165902    0.336355    0.254249  Uiso   1.00  Se
   Se019  1.0    0.167976    0.580937    0.253228  Uiso   1.00  Se
   Se020  1.0    0.165804    0.823252    0.254648  Uiso   1.00  Se
   Se021  1.0    0.424104    0.083165    0.251822  Uiso   1.00  Se
   Se022  1.0    0.426279    0.335805    0.252913  Uiso   1.00  Se
   Se023  1.0    0.423187    0.586241    0.248992  Uiso   1.00  Se
   Se024  1.0    0.422199    0.832199    0.248385  Uiso   1.00  Se
   Se025  1.0    0.666235    0.079736    0.247006  Uiso   1.00  Se
   Se026  1.0    0.671278    0.331531    0.245922  Uiso   1.00  Se
   Se027  1.0    0.669828    0.584221    0.249398  Uiso   1.00  Se
   Se028  1.0    0.665212    0.831893    0.247640  Uiso   1.00  Se
   Se029  1.0    0.910606    0.082607    0.250269  Uiso   1.00  Se
   Se030  1.0    0.911127    0.329875    0.245562  Uiso   1.00  Se
   Se031  1.0    0.912302    0.575233    0.246290  Uiso   1.00  Se
   Se032  1.0    0.914338    0.826898    0.253806  Uiso   1.00  Se
   Se033  1.0    0.070276    0.174015    0.355926  Uiso   1.00  Se
   Se034  1.0    0.082936    0.419155    0.352016  Uiso   1.00  Se
   Se035  1.0    0.083528    0.654353    0.353039  Uiso   1.00  Se
   Se036  1.0    0.071624    0.889031    0.356931  Uiso   1.00  Se
   Se037  1.0    0.356759    0.175470    0.355880  Uiso   1.00  Se
   Se038  1.0    0.342878    0.427862    0.358919  Uiso   1.00  Se
   Se039  1.0    0.340703    0.666947    0.359179  Uiso   1.00  Se
   Se040  1.0    0.343167    0.908307    0.359151  Uiso   1.00  Se
   Se041  1.0    0.588884    0.161962    0.357318  Uiso   1.00  Se
   Se042  1.0    0.588247    0.418154    0.355957  Uiso   1.00  Se
   Se043  1.0    0.582990    0.666691    0.358672  Uiso   1.00  Se
   Se044  1.0    0.582630    0.912395    0.358722  Uiso   1.00  Se
   Se045  1.0    0.824144    0.161004    0.356647  Uiso   1.00  Se
   Se046  1.0    0.828475    0.409112    0.356157  Uiso   1.00  Se
   Se047  1.0    0.823216    0.656421    0.355335  Uiso   1.00  Se
   Se048  1.0    0.818118    0.908694    0.358428  Uiso   1.00  Se
   Se049  1.0    0.173526    0.087740    0.044994  Uiso   1.00  Se
   Se050  1.0    0.173552    0.336366    0.044277  Uiso   1.00  Se
   Se051  1.0    0.174428    0.585677    0.044247  Uiso   1.00  Se
   Se052  1.0    0.174981    0.837392    0.045559  Uiso   1.00  Se
   Se053  1.0    0.421011    0.085878    0.044984  Uiso   1.00  Se
   Se054  1.0    0.419675    0.336584    0.043668  Uiso   1.00  Se
   Se055  1.0    0.419759    0.584024    0.043224  Uiso   1.00  Se
   Se056  1.0    0.419844    0.832501    0.043613  Uiso   1.00  Se
   Se057  1.0    0.666121    0.081529    0.044768  Uiso   1.00  Se
   Se058  1.0    0.665154    0.333736    0.044490  Uiso   1.00  Se
   Se059  1.0    0.666261    0.584071    0.044196  Uiso   1.00  Se
   Se060  1.0    0.666854    0.832144    0.044271  Uiso   1.00  Se
   Se061  1.0    0.919602    0.084471    0.047646  Uiso   1.00  Se
   Se062  1.0    0.919115    0.333772    0.048538  Uiso   1.00  Se
   Se063  1.0    0.919412    0.584762    0.048695  Uiso   1.00  Se
   Se064  1.0    0.919719    0.834837    0.047931  Uiso   1.00  Se
    V001  1.0    0.014255    0.007554    0.097970  Uiso   1.00   V
    V002  1.0    0.016463    0.255414    0.098276  Uiso   1.00   V
    V003  1.0    0.018217    0.508158    0.097825  Uiso   1.00   V
    V004  1.0    0.017067    0.760765    0.097873  Uiso   1.00   V
    V005  1.0    0.260883    0.009564    0.098180  Uiso   1.00   V
    V006  1.0    0.260544    0.258042    0.098290  Uiso   1.00   V
    V007  1.0    0.260373    0.501771    0.098315  Uiso   1.00   V
    V008  1.0    0.260862    0.750483    0.098340  Uiso   1.00   V
    V009  1.0    0.494832    0.991123    0.098017  Uiso   1.00   V
    V010  1.0    0.494795    0.253744    0.098263  Uiso   1.00   V
    V011  1.0    0.495806    0.501406    0.098467  Uiso   1.00   V
    V012  1.0    0.496307    0.743502    0.098253  Uiso   1.00   V
    V013  1.0    0.740735    0.991196    0.098512  Uiso   1.00   V
    V014  1.0    0.735678    0.243234    0.098184  Uiso   1.00   V
    V015  1.0    0.737662    0.497156    0.098367  Uiso   1.00   V
    V016  1.0    0.740666    0.745033    0.098592  Uiso   1.00   V
    V017  1.0    0.961442    0.984190    0.302814  Uiso   1.00   V
    V018  1.0    0.976819    0.252846    0.302973  Uiso   1.00   V
    V019  1.0    0.977929    0.483923    0.301354  Uiso   1.00   V
    V020  1.0    0.979917    0.714665    0.304647  Uiso   1.00   V
    V021  1.0    0.272340   -0.019627    0.303223  Uiso   1.00   V
    V022  1.0    0.272258    0.285612    0.302613  Uiso   1.00   V
    V023  1.0    0.271151    0.516742    0.302898  Uiso   1.00   V
    V024  1.0    0.271189    0.748169    0.302937  Uiso   1.00   V
    V025  1.0    0.512305   -0.004179    0.302659  Uiso   1.00   V
    V026  1.0    0.530061    0.257091    0.303317  Uiso   1.00   V
    V027  1.0    0.512601    0.513095    0.302982  Uiso   1.00   V
    V028  1.0    0.505454    0.752632    0.302667  Uiso   1.00   V
    V029  1.0    0.734448   -0.007850    0.302123  Uiso   1.00   V
    V030  1.0    0.746176    0.242204    0.301322  Uiso   1.00   V
    V031  1.0    0.747661    0.490343    0.301674  Uiso   1.00   V
    V032  1.0    0.733937    0.746694    0.302291  Uiso   1.00   V
   Cr001  1.0    0.165878    0.078418    0.339549  Uiso   1.00  Cr
