data_created_by_vaspkit_code
_audit_creation_date          Mon Apr 10 11:33:23 2023
_pd_phase_name                     'CIF files'
_cell_length_a                    13.29870033
_cell_length_b                    13.29870033
_cell_length_c                    30.00000000
_cell_angle_alpha                     90.0000
_cell_angle_beta                      90.0000
_cell_angle_gamma                    120.0000
_symmetry_space_group_name_H-M           'P 1'
_symmetry_Int_Tables_number            1
loop_
_symmetry_equiv_pos_as_xyz
    'x, y, z'
loop_
   _atom_site_label
   _atom_site_occupancy
   _atom_site_fract_x
   _atom_site_fract_y
   _atom_site_fract_z
   _atom_site_thermal_displace_type
   _atom_site_U_iso_or_equiv
   _atom_site_type_symbol
   Se001  1.0    0.089432    0.171036    0.144274  Uiso   1.00  Se
   Se002  1.0    0.087885    0.418919    0.143450  Uiso   1.00  Se
   Se003  1.0    0.091835    0.677025    0.144210  Uiso   1.00  Se
   Se004  1.0    0.089612    0.924291    0.145731  Uiso   1.00  Se
   Se005  1.0    0.341430    0.174051    0.147292  Uiso   1.00  Se
   Se006  1.0    0.342045    0.422798    0.148779  Uiso   1.00  Se
   Se007  1.0    0.342176    0.671326    0.148411  Uiso   1.00  Se
   Se008  1.0    0.340339    0.923271    0.144785  Uiso   1.00  Se
   Se009  1.0    0.584023    0.171990    0.146904  Uiso   1.00  Se
   Se010  1.0    0.588597    0.425400    0.149761  Uiso   1.00  Se
   Se011  1.0    0.587665    0.670017    0.150688  Uiso   1.00  Se
   Se012  1.0    0.587120    0.918265    0.149772  Uiso   1.00  Se
   Se013  1.0    0.829117    0.167901    0.148397  Uiso   1.00  Se
   Se014  1.0    0.834394    0.424704    0.148366  Uiso   1.00  Se
   Se015  1.0    0.834046    0.671726    0.150935  Uiso   1.00  Se
   Se016  1.0    0.833626    0.916843    0.151352  Uiso   1.00  Se
   Se017  1.0    0.171595    0.065840    0.258581  Uiso   1.00  Se
   Se018  1.0    0.162815    0.316290    0.247915  Uiso   1.00  Se
   Se019  1.0    0.163298    0.585088    0.246291  Uiso   1.00  Se
   Se020  1.0    0.162942    0.824807    0.256914  Uiso   1.00  Se
   Se021  1.0    0.420135    0.077175    0.248328  Uiso   1.00  Se
   Se022  1.0    0.422590    0.328842    0.244976  Uiso   1.00  Se
   Se023  1.0    0.405883    0.574864    0.244318  Uiso   1.00  Se
   Se024  1.0    0.405071    0.823390    0.246318  Uiso   1.00  Se
   Se025  1.0    0.652253    0.073972    0.243837  Uiso   1.00  Se
   Se026  1.0    0.669807    0.335739    0.245702  Uiso   1.00  Se
   Se027  1.0    0.673640    0.591088    0.256207  Uiso   1.00  Se
   Se028  1.0    0.648885    0.820920    0.247652  Uiso   1.00  Se
   Se029  1.0    0.891302    0.074942    0.250039  Uiso   1.00  Se
   Se030  1.0    0.911517    0.342526    0.243010  Uiso   1.00  Se
   Se031  1.0    0.922705    0.598277    0.254163  Uiso   1.00  Se
   Se032  1.0    0.935548    0.870036    0.281683  Uiso   1.00  Se
   Se033  1.0    0.081356    0.173624    0.359717  Uiso   1.00  Se
   Se034  1.0    0.075683    0.402684    0.350578  Uiso   1.00  Se
   Se035  1.0    0.085227    0.646780    0.362609  Uiso   1.00  Se
   Se036  1.0    0.115450    0.897759    0.374808  Uiso   1.00  Se
   Se037  1.0    0.342510    0.162441    0.355393  Uiso   1.00  Se
   Se038  1.0    0.323638    0.406170    0.351219  Uiso   1.00  Se
   Se039  1.0    0.320736    0.644769    0.357190  Uiso   1.00  Se
   Se040  1.0    0.346460    0.905433    0.361674  Uiso   1.00  Se
   Se041  1.0    0.584124    0.160580    0.353027  Uiso   1.00  Se
   Se042  1.0    0.582999    0.415263    0.351176  Uiso   1.00  Se
   Se043  1.0    0.552703    0.643900    0.356568  Uiso   1.00  Se
   Se044  1.0    0.560157    0.897638    0.358113  Uiso   1.00  Se
   Se045  1.0    0.830636    0.158168    0.346458  Uiso   1.00  Se
   Se046  1.0    0.832477    0.402614    0.353082  Uiso   1.00  Se
   Se047  1.0    0.821527    0.664569    0.354106  Uiso   1.00  Se
   Se048  1.0    0.773676    0.891835    0.369860  Uiso   1.00  Se
   Se049  1.0    0.168246    0.091127    0.044987  Uiso   1.00  Se
   Se050  1.0    0.168300    0.336929    0.045965  Uiso   1.00  Se
   Se051  1.0    0.171908    0.585609    0.044491  Uiso   1.00  Se
   Se052  1.0    0.170865    0.836812    0.046914  Uiso   1.00  Se
   Se053  1.0    0.430484    0.093602    0.042602  Uiso   1.00  Se
   Se054  1.0    0.427826    0.344850    0.039983  Uiso   1.00  Se
   Se055  1.0    0.426906    0.591015    0.040719  Uiso   1.00  Se
   Se056  1.0    0.429195    0.839422    0.040838  Uiso   1.00  Se
   Se057  1.0    0.676399    0.090180    0.043306  Uiso   1.00  Se
   Se058  1.0    0.673722    0.344610    0.040997  Uiso   1.00  Se
   Se059  1.0    0.672905    0.592056    0.040446  Uiso   1.00  Se
   Se060  1.0    0.673014    0.837030    0.041010  Uiso   1.00  Se
   Se061  1.0    0.914523    0.082553    0.041923  Uiso   1.00  Se
   Se062  1.0    0.918260    0.337303    0.043779  Uiso   1.00  Se
   Se063  1.0    0.920000    0.590401    0.042793  Uiso   1.00  Se
   Se064  1.0    0.917365    0.837828    0.041744  Uiso   1.00  Se
    V001  1.0    0.987446    0.993797    0.096837  Uiso   1.00   V
    V002  1.0    0.983100    0.237056    0.096765  Uiso   1.00   V
    V003  1.0    0.995220    0.504563    0.096852  Uiso   1.00   V
    V004  1.0    0.988462    0.753194    0.096313  Uiso   1.00   V
    V005  1.0    0.268207    0.018916    0.091481  Uiso   1.00   V
    V006  1.0    0.273683    0.268164    0.094259  Uiso   1.00   V
    V007  1.0    0.270935    0.509759    0.095130  Uiso   1.00   V
    V008  1.0    0.272720    0.754982    0.094064  Uiso   1.00   V
    V009  1.0    0.516865    0.002514    0.095146  Uiso   1.00   V
    V010  1.0    0.513130    0.270767    0.095015  Uiso   1.00   V
    V011  1.0    0.511835    0.512876    0.095181  Uiso   1.00   V
    V012  1.0    0.514515    0.754250    0.095702  Uiso   1.00   V
    V013  1.0    0.749096    0.991129    0.096977  Uiso   1.00   V
    V014  1.0    0.746864    0.261654    0.095848  Uiso   1.00   V
    V015  1.0    0.748155    0.511103    0.095880  Uiso   1.00   V
    V016  1.0    0.746229    0.748615    0.096546  Uiso   1.00   V
    V017  1.0    0.916921    1.020913    0.322517  Uiso   1.00   V
    V018  1.0    0.992818    0.266710    0.290275  Uiso   1.00   V
    V019  1.0    0.009505    0.506337    0.301274  Uiso   1.00   V
    V020  1.0    1.011092    0.738002    0.315949  Uiso   1.00   V
    V021  1.0    0.279917    0.986931    0.305199  Uiso   1.00   V
    V022  1.0    0.273940    0.249599    0.299411  Uiso   1.00   V
    V023  1.0    0.243254    0.502619    0.297279  Uiso   1.00   V
    V024  1.0    0.259941    0.745099    0.304870  Uiso   1.00   V
    V025  1.0    0.493948    0.982604    0.300282  Uiso   1.00   V
    V026  1.0    0.508713    0.251652    0.300258  Uiso   1.00   V
    V027  1.0    0.483644    0.495673    0.297950  Uiso   1.00   V
    V028  1.0    0.477093    0.735587    0.300526  Uiso   1.00   V
    V029  1.0    0.702250    0.976886    0.300165  Uiso   1.00   V
    V030  1.0    0.730443    0.233094    0.297493  Uiso   1.00   V
    V031  1.0    0.757197    0.484385    0.303105  Uiso   1.00   V
    V032  1.0    0.712834    0.748718    0.308201  Uiso   1.00   V
   Cr001  1.0    0.095421    0.022941    0.330715  Uiso   1.00  Cr
