data_created_by_vaspkit_code
_audit_creation_date          Mon Apr 10 11:33:23 2023
_pd_phase_name                     'CIF files'
_cell_length_a                    13.29870033
_cell_length_b                    13.29870033
_cell_length_c                    30.00000000
_cell_angle_alpha                     90.0000
_cell_angle_beta                      90.0000
_cell_angle_gamma                    120.0000
_symmetry_space_group_name_H-M           'P 1'
_symmetry_Int_Tables_number            1
loop_
_symmetry_equiv_pos_as_xyz
    'x, y, z'
loop_
   _atom_site_label
   _atom_site_occupancy
   _atom_site_fract_x
   _atom_site_fract_y
   _atom_site_fract_z
   _atom_site_thermal_displace_type
   _atom_site_U_iso_or_equiv
   _atom_site_type_symbol
   Se001  1.0    0.089573    0.171415    0.146013  Uiso   1.00  Se
   Se002  1.0    0.089008    0.423226    0.146149  Uiso   1.00  Se
   Se003  1.0    0.089397    0.675401    0.147132  Uiso   1.00  Se
   Se004  1.0    0.087870    0.922175    0.147557  Uiso   1.00  Se
   Se005  1.0    0.342138    0.175224    0.147945  Uiso   1.00  Se
   Se006  1.0    0.342015    0.423833    0.150072  Uiso   1.00  Se
   Se007  1.0    0.341191    0.671827    0.149022  Uiso   1.00  Se
   Se008  1.0    0.338884    0.922992    0.145983  Uiso   1.00  Se
   Se009  1.0    0.586748    0.174010    0.147565  Uiso   1.00  Se
   Se010  1.0    0.589435    0.425542    0.150140  Uiso   1.00  Se
   Se011  1.0    0.587977    0.670622    0.151034  Uiso   1.00  Se
   Se012  1.0    0.586578    0.919297    0.149470  Uiso   1.00  Se
   Se013  1.0    0.831182    0.170044    0.147971  Uiso   1.00  Se
   Se014  1.0    0.835462    0.425498    0.149474  Uiso   1.00  Se
   Se015  1.0    0.834992    0.672327    0.151193  Uiso   1.00  Se
   Se016  1.0    0.834397    0.917753    0.151455  Uiso   1.00  Se
   Se017  1.0    0.188629    0.088642    0.249032  Uiso   1.00  Se
   Se018  1.0    0.164938    0.320341    0.252782  Uiso   1.00  Se
   Se019  1.0    0.165559    0.584416    0.247696  Uiso   1.00  Se
   Se020  1.0    0.162067    0.836684    0.260444  Uiso   1.00  Se
   Se021  1.0    0.426714    0.082614    0.247373  Uiso   1.00  Se
   Se022  1.0    0.430928    0.336914    0.246949  Uiso   1.00  Se
   Se023  1.0    0.407705    0.577263    0.246069  Uiso   1.00  Se
   Se024  1.0    0.404917    0.824166    0.246873  Uiso   1.00  Se
   Se025  1.0    0.652967    0.073337    0.246166  Uiso   1.00  Se
   Se026  1.0    0.671592    0.331759    0.246614  Uiso   1.00  Se
   Se027  1.0    0.670286    0.587041    0.256548  Uiso   1.00  Se
   Se028  1.0    0.648716    0.824109    0.248707  Uiso   1.00  Se
   Se029  1.0    0.891003    0.079907    0.248780  Uiso   1.00  Se
   Se030  1.0    0.914067    0.337980    0.247527  Uiso   1.00  Se
   Se031  1.0    0.921777    0.589213    0.252818  Uiso   1.00  Se
   Se032  1.0    0.913136    0.841606    0.266605  Uiso   1.00  Se
   Se033  1.0    0.088615    0.152163    0.348563  Uiso   1.00  Se
   Se034  1.0    0.081616    0.406511    0.354795  Uiso   1.00  Se
   Se035  1.0    0.086085    0.650338    0.362197  Uiso   1.00  Se
   Se036  1.0    0.103914    0.898830    0.370261  Uiso   1.00  Se
   Se037  1.0    0.348975    0.169955    0.359105  Uiso   1.00  Se
   Se038  1.0    0.325652    0.407000    0.352813  Uiso   1.00  Se
   Se039  1.0    0.324000    0.653228    0.357978  Uiso   1.00  Se
   Se040  1.0    0.336866    0.906916    0.361380  Uiso   1.00  Se
   Se041  1.0    0.581585    0.158260    0.355335  Uiso   1.00  Se
   Se042  1.0    0.585895    0.417502    0.352196  Uiso   1.00  Se
   Se043  1.0    0.557475    0.650777    0.358764  Uiso   1.00  Se
   Se044  1.0    0.560010    0.900522    0.359636  Uiso   1.00  Se
   Se045  1.0    0.829049    0.157688    0.351093  Uiso   1.00  Se
   Se046  1.0    0.833617    0.403872    0.354525  Uiso   1.00  Se
   Se047  1.0    0.820280    0.661341    0.354057  Uiso   1.00  Se
   Se048  1.0    0.789793    0.898350    0.366086  Uiso   1.00  Se
   Se049  1.0    0.168276    0.091673    0.045451  Uiso   1.00  Se
   Se050  1.0    0.170350    0.338736    0.045626  Uiso   1.00  Se
   Se051  1.0    0.170493    0.585177    0.045124  Uiso   1.00  Se
   Se052  1.0    0.170568    0.837662    0.046420  Uiso   1.00  Se
   Se053  1.0    0.425884    0.092147    0.044123  Uiso   1.00  Se
   Se054  1.0    0.425673    0.343647    0.041492  Uiso   1.00  Se
   Se055  1.0    0.425018    0.590133    0.041915  Uiso   1.00  Se
   Se056  1.0    0.425262    0.838936    0.043135  Uiso   1.00  Se
   Se057  1.0    0.676006    0.091008    0.044471  Uiso   1.00  Se
   Se058  1.0    0.673486    0.344359    0.041590  Uiso   1.00  Se
   Se059  1.0    0.671940    0.591203    0.041236  Uiso   1.00  Se
   Se060  1.0    0.671679    0.837104    0.042141  Uiso   1.00  Se
   Se061  1.0    0.917715    0.086409    0.044181  Uiso   1.00  Se
   Se062  1.0    0.920186    0.339560    0.044373  Uiso   1.00  Se
   Se063  1.0    0.919933    0.590373    0.042910  Uiso   1.00  Se
   Se064  1.0    0.918002    0.837534    0.042658  Uiso   1.00  Se
    V001  1.0    0.990408    0.994031    0.097506  Uiso   1.00   V
    V002  1.0    0.993170    0.248170    0.098598  Uiso   1.00   V
    V003  1.0    0.996018    0.507020    0.097313  Uiso   1.00   V
    V004  1.0    0.991687    0.751566    0.096764  Uiso   1.00   V
    V005  1.0    0.259291    0.014319    0.094142  Uiso   1.00   V
    V006  1.0    0.269954    0.267861    0.095982  Uiso   1.00   V
    V007  1.0    0.268496    0.508316    0.096398  Uiso   1.00   V
    V008  1.0    0.263490    0.751642    0.095467  Uiso   1.00   V
    V009  1.0    0.513925    0.006216    0.095857  Uiso   1.00   V
    V010  1.0    0.512318    0.268338    0.095600  Uiso   1.00   V
    V011  1.0    0.511857    0.511557    0.096206  Uiso   1.00   V
    V012  1.0    0.511129    0.752739    0.096466  Uiso   1.00   V
    V013  1.0    0.750386    0.992522    0.097418  Uiso   1.00   V
    V014  1.0    0.750945    0.265428    0.096331  Uiso   1.00   V
    V015  1.0    0.749855    0.511453    0.096549  Uiso   1.00   V
    V016  1.0    0.747465    0.748479    0.096996  Uiso   1.00   V
    V017  1.0    0.927013    0.003184    0.311787  Uiso   1.00   V
    V018  1.0    0.993950    0.263186    0.297098  Uiso   1.00   V
    V019  1.0    0.013611    0.506702    0.302304  Uiso   1.00   V
    V020  1.0   -0.003039    0.725091    0.314081  Uiso   1.00   V
    V021  1.0    0.294365    1.011233    0.306186  Uiso   1.00   V
    V022  1.0    0.283732    0.248087    0.300809  Uiso   1.00   V
    V023  1.0    0.247987    0.503398    0.299999  Uiso   1.00   V
    V024  1.0    0.258399    0.749182    0.304812  Uiso   1.00   V
    V025  1.0    0.491788    0.981672    0.301681  Uiso   1.00   V
    V026  1.0    0.511691    0.250841    0.301669  Uiso   1.00   V
    V027  1.0    0.487412    0.503475    0.300252  Uiso   1.00   V
    V028  1.0    0.480104    0.738903    0.301907  Uiso   1.00   V
    V029  1.0    0.705882    0.979454    0.303134  Uiso   1.00   V
    V030  1.0    0.730383    0.229458    0.300741  Uiso   1.00   V
    V031  1.0    0.753945    0.477523    0.303462  Uiso   1.00   V
    V032  1.0    0.712396    0.748267    0.307211  Uiso   1.00   V
   Cr001  1.0    0.078370   -0.025401    0.307049  Uiso   1.00  Cr
