data_created_by_vaspkit_code
_audit_creation_date          Mon Apr 10 11:33:23 2023
_pd_phase_name                     'CIF files'
_cell_length_a                    13.29870033
_cell_length_b                    13.29870033
_cell_length_c                    30.00000000
_cell_angle_alpha                     90.0000
_cell_angle_beta                      90.0000
_cell_angle_gamma                    120.0000
_symmetry_space_group_name_H-M           'P 1'
_symmetry_Int_Tables_number            1
loop_
_symmetry_equiv_pos_as_xyz
    'x, y, z'
loop_
   _atom_site_label
   _atom_site_occupancy
   _atom_site_fract_x
   _atom_site_fract_y
   _atom_site_fract_z
   _atom_site_thermal_displace_type
   _atom_site_U_iso_or_equiv
   _atom_site_type_symbol
   Se001  1.0    0.088867    0.171236    0.147107  Uiso   1.00  Se
   Se002  1.0    0.089331    0.425640    0.147668  Uiso   1.00  Se
   Se003  1.0    0.087409    0.673887    0.148443  Uiso   1.00  Se
   Se004  1.0    0.086976    0.920661    0.148243  Uiso   1.00  Se
   Se005  1.0    0.341690    0.175831    0.149113  Uiso   1.00  Se
   Se006  1.0    0.341765    0.424210    0.151161  Uiso   1.00  Se
   Se007  1.0    0.340261    0.671494    0.149663  Uiso   1.00  Se
   Se008  1.0    0.337766    0.922528    0.146784  Uiso   1.00  Se
   Se009  1.0    0.587349    0.174605    0.148228  Uiso   1.00  Se
   Se010  1.0    0.588995    0.425103    0.150792  Uiso   1.00  Se
   Se011  1.0    0.587511    0.670291    0.151429  Uiso   1.00  Se
   Se012  1.0    0.585672    0.919400    0.149250  Uiso   1.00  Se
   Se013  1.0    0.832903    0.170890    0.146802  Uiso   1.00  Se
   Se014  1.0    0.835074    0.424623    0.149925  Uiso   1.00  Se
   Se015  1.0    0.834449    0.671488    0.151302  Uiso   1.00  Se
   Se016  1.0    0.834218    0.917542    0.151344  Uiso   1.00  Se
   Se017  1.0    0.190818    0.100948    0.246360  Uiso   1.00  Se
   Se018  1.0    0.164671    0.326707    0.253377  Uiso   1.00  Se
   Se019  1.0    0.165483    0.581217    0.249050  Uiso   1.00  Se
   Se020  1.0    0.163953    0.828560    0.256228  Uiso   1.00  Se
   Se021  1.0    0.425869    0.082854    0.248382  Uiso   1.00  Se
   Se022  1.0    0.432173    0.340742    0.250113  Uiso   1.00  Se
   Se023  1.0    0.409390    0.580704    0.248300  Uiso   1.00  Se
   Se024  1.0    0.409952    0.826977    0.248064  Uiso   1.00  Se
   Se025  1.0    0.656434    0.075563    0.247537  Uiso   1.00  Se
   Se026  1.0    0.670336    0.328966    0.247918  Uiso   1.00  Se
   Se027  1.0    0.665071    0.581851    0.256773  Uiso   1.00  Se
   Se028  1.0    0.650851    0.827175    0.249632  Uiso   1.00  Se
   Se029  1.0    0.897444    0.080561    0.250629  Uiso   1.00  Se
   Se030  1.0    0.913682    0.333121    0.248552  Uiso   1.00  Se
   Se031  1.0    0.918375    0.579314    0.250830  Uiso   1.00  Se
   Se032  1.0    0.899073    0.825296    0.258995  Uiso   1.00  Se
   Se033  1.0    0.085562    0.165433    0.350183  Uiso   1.00  Se
   Se034  1.0    0.082464    0.409856    0.356921  Uiso   1.00  Se
   Se035  1.0    0.086273    0.653271    0.360493  Uiso   1.00  Se
   Se036  1.0    0.088976    0.906100    0.359401  Uiso   1.00  Se
   Se037  1.0    0.344850    0.170571    0.357937  Uiso   1.00  Se
   Se038  1.0    0.329176    0.412672    0.356821  Uiso   1.00  Se
   Se039  1.0    0.326812    0.658343    0.359230  Uiso   1.00  Se
   Se040  1.0    0.334158    0.907687    0.359738  Uiso   1.00  Se
   Se041  1.0    0.582515    0.157970    0.357122  Uiso   1.00  Se
   Se042  1.0    0.585335    0.416221    0.352819  Uiso   1.00  Se
   Se043  1.0    0.564053    0.657085    0.360546  Uiso   1.00  Se
   Se044  1.0    0.567876    0.905304    0.359859  Uiso   1.00  Se
   Se045  1.0    0.827064    0.159272    0.354710  Uiso   1.00  Se
   Se046  1.0    0.833558    0.404642    0.356166  Uiso   1.00  Se
   Se047  1.0    0.821326    0.659457    0.353045  Uiso   1.00  Se
   Se048  1.0    0.805412    0.905804    0.361487  Uiso   1.00  Se
   Se049  1.0    0.168433    0.091907    0.046014  Uiso   1.00  Se
   Se050  1.0    0.171756    0.339548    0.045195  Uiso   1.00  Se
   Se051  1.0    0.169706    0.584785    0.045576  Uiso   1.00  Se
   Se052  1.0    0.170398    0.838451    0.047120  Uiso   1.00  Se
   Se053  1.0    0.423522    0.091785    0.044702  Uiso   1.00  Se
   Se054  1.0    0.423720    0.342413    0.042418  Uiso   1.00  Se
   Se055  1.0    0.423563    0.588927    0.042491  Uiso   1.00  Se
   Se056  1.0    0.423129    0.838441    0.044578  Uiso   1.00  Se
   Se057  1.0    0.674894    0.090531    0.045077  Uiso   1.00  Se
   Se058  1.0    0.671528    0.343189    0.042020  Uiso   1.00  Se
   Se059  1.0    0.670614    0.589763    0.041685  Uiso   1.00  Se
   Se060  1.0    0.670242    0.835936    0.042743  Uiso   1.00  Se
   Se061  1.0    0.918961    0.087611    0.045627  Uiso   1.00  Se
   Se062  1.0    0.920424    0.340022    0.044638  Uiso   1.00  Se
   Se063  1.0    0.918791    0.589449    0.042910  Uiso   1.00  Se
   Se064  1.0    0.917767    0.836617    0.043351  Uiso   1.00  Se
    V001  1.0    0.992002    0.993759    0.097729  Uiso   1.00   V
    V002  1.0    1.003285    0.257367    0.099173  Uiso   1.00   V
    V003  1.0    0.995167    0.507180    0.097399  Uiso   1.00   V
    V004  1.0    0.991818    0.748712    0.096966  Uiso   1.00   V
    V005  1.0    0.257409    0.014962    0.095741  Uiso   1.00   V
    V006  1.0    0.267590    0.267605    0.097280  Uiso   1.00   V
    V007  1.0    0.267514    0.507118    0.097248  Uiso   1.00   V
    V008  1.0    0.257958    0.749082    0.096225  Uiso   1.00   V
    V009  1.0    0.511056    0.007964    0.096439  Uiso   1.00   V
    V010  1.0    0.510505    0.267127    0.096280  Uiso   1.00   V
    V011  1.0    0.511245    0.509784    0.096945  Uiso   1.00   V
    V012  1.0    0.507882    0.749859    0.097009  Uiso   1.00   V
    V013  1.0    0.749666    0.992361    0.097546  Uiso   1.00   V
    V014  1.0    0.751810    0.265991    0.096581  Uiso   1.00   V
    V015  1.0    0.748830    0.509639    0.096899  Uiso   1.00   V
    V016  1.0    0.747035    0.747440    0.097317  Uiso   1.00   V
    V017  1.0    0.954471    0.003711    0.308046  Uiso   1.00   V
    V018  1.0    0.990746    0.259815    0.301247  Uiso   1.00   V
    V019  1.0    0.009510    0.500239    0.303016  Uiso   1.00   V
    V020  1.0   -0.008189    0.715646    0.310308  Uiso   1.00   V
    V021  1.0    0.287168    1.013533    0.305510  Uiso   1.00   V
    V022  1.0    0.278909    0.260957    0.301952  Uiso   1.00   V
    V023  1.0    0.248179    0.501031    0.302141  Uiso   1.00   V
    V024  1.0    0.259040    0.745795    0.304259  Uiso   1.00   V
    V025  1.0    0.494733    0.984410    0.303068  Uiso   1.00   V
    V026  1.0    0.514594    0.247132    0.303478  Uiso   1.00   V
    V027  1.0    0.487627    0.507030    0.302733  Uiso   1.00   V
    V028  1.0    0.483627    0.742005    0.303374  Uiso   1.00   V
    V029  1.0    0.717997    0.987696    0.304025  Uiso   1.00   V
    V030  1.0    0.736311    0.232634    0.302444  Uiso   1.00   V
    V031  1.0    0.754972    0.477921    0.303910  Uiso   1.00   V
    V032  1.0    0.714033    0.746619    0.306370  Uiso   1.00   V
   Cr001  1.0    0.083315   -0.061175    0.287311  Uiso   1.00  Cr
