data_created_by_vaspkit_code
_audit_creation_date          Mon Apr 10 11:33:23 2023
_pd_phase_name                     'CIF files'
_cell_length_a                    13.29870033
_cell_length_b                    13.29870033
_cell_length_c                    30.00000000
_cell_angle_alpha                     90.0000
_cell_angle_beta                      90.0000
_cell_angle_gamma                    120.0000
_symmetry_space_group_name_H-M           'P 1'
_symmetry_Int_Tables_number            1
loop_
_symmetry_equiv_pos_as_xyz
    'x, y, z'
loop_
   _atom_site_label
   _atom_site_occupancy
   _atom_site_fract_x
   _atom_site_fract_y
   _atom_site_fract_z
   _atom_site_thermal_displace_type
   _atom_site_U_iso_or_equiv
   _atom_site_type_symbol
   Se001  1.0    0.087868    0.171309    0.148387  Uiso   1.00  Se
   Se002  1.0    0.088465    0.425876    0.148193  Uiso   1.00  Se
   Se003  1.0    0.086564    0.672728    0.149041  Uiso   1.00  Se
   Se004  1.0    0.086832    0.920003    0.149610  Uiso   1.00  Se
   Se005  1.0    0.340908    0.176714    0.151120  Uiso   1.00  Se
   Se006  1.0    0.340635    0.423988    0.152435  Uiso   1.00  Se
   Se007  1.0    0.339271    0.671152    0.150574  Uiso   1.00  Se
   Se008  1.0    0.337463    0.922221    0.147649  Uiso   1.00  Se
   Se009  1.0    0.586671    0.174116    0.149047  Uiso   1.00  Se
   Se010  1.0    0.587824    0.424308    0.151940  Uiso   1.00  Se
   Se011  1.0    0.586767    0.669878    0.152262  Uiso   1.00  Se
   Se012  1.0    0.585118    0.919417    0.149514  Uiso   1.00  Se
   Se013  1.0    0.833133    0.171014    0.146766  Uiso   1.00  Se
   Se014  1.0    0.834184    0.423313    0.150295  Uiso   1.00  Se
   Se015  1.0    0.832744    0.669448    0.151913  Uiso   1.00  Se
   Se016  1.0    0.833068    0.917569    0.151447  Uiso   1.00  Se
   Se017  1.0    0.184297    0.105914    0.250937  Uiso   1.00  Se
   Se018  1.0    0.163846    0.334045    0.252004  Uiso   1.00  Se
   Se019  1.0    0.164804    0.576867    0.251088  Uiso   1.00  Se
   Se020  1.0    0.173143    0.818991    0.253370  Uiso   1.00  Se
   Se021  1.0    0.427115    0.084666    0.249346  Uiso   1.00  Se
   Se022  1.0    0.427642    0.341033    0.254068  Uiso   1.00  Se
   Se023  1.0    0.411427    0.582817    0.251069  Uiso   1.00  Se
   Se024  1.0    0.416104    0.829948    0.250056  Uiso   1.00  Se
   Se025  1.0    0.661874    0.080079    0.248357  Uiso   1.00  Se
   Se026  1.0    0.668935    0.327490    0.248989  Uiso   1.00  Se
   Se027  1.0    0.660916    0.576675    0.257359  Uiso   1.00  Se
   Se028  1.0    0.653837    0.831020    0.250274  Uiso   1.00  Se
   Se029  1.0    0.903758    0.083547    0.249665  Uiso   1.00  Se
   Se030  1.0    0.912957    0.329167    0.248661  Uiso   1.00  Se
   Se031  1.0    0.913909    0.570162    0.249929  Uiso   1.00  Se
   Se032  1.0    0.888560    0.819789    0.253958  Uiso   1.00  Se
   Se033  1.0    0.083574    0.166119    0.352738  Uiso   1.00  Se
   Se034  1.0    0.080648    0.408416    0.358763  Uiso   1.00  Se
   Se035  1.0    0.085731    0.655206    0.358026  Uiso   1.00  Se
   Se036  1.0    0.082024    0.913004    0.346011  Uiso   1.00  Se
   Se037  1.0    0.339737    0.170431    0.355050  Uiso   1.00  Se
   Se038  1.0    0.331151    0.416894    0.360949  Uiso   1.00  Se
   Se039  1.0    0.331361    0.660148    0.361348  Uiso   1.00  Se
   Se040  1.0    0.335391    0.910090    0.357373  Uiso   1.00  Se
   Se041  1.0    0.585452    0.160103    0.358891  Uiso   1.00  Se
   Se042  1.0    0.584533    0.415045    0.354366  Uiso   1.00  Se
   Se043  1.0    0.572093    0.663102    0.362120  Uiso   1.00  Se
   Se044  1.0    0.577689    0.911882    0.360083  Uiso   1.00  Se
   Se045  1.0    0.828821    0.160896    0.358103  Uiso   1.00  Se
   Se046  1.0    0.833529    0.405884    0.358767  Uiso   1.00  Se
   Se047  1.0    0.824401    0.659461    0.352457  Uiso   1.00  Se
   Se048  1.0    0.817899    0.911187    0.358675  Uiso   1.00  Se
   Se049  1.0    0.168274    0.091566    0.047022  Uiso   1.00  Se
   Se050  1.0    0.171416    0.339180    0.045520  Uiso   1.00  Se
   Se051  1.0    0.168940    0.584454    0.046154  Uiso   1.00  Se
   Se052  1.0    0.169986    0.839545    0.048811  Uiso   1.00  Se
   Se053  1.0    0.422190    0.091867    0.045337  Uiso   1.00  Se
   Se054  1.0    0.421836    0.341545    0.043463  Uiso   1.00  Se
   Se055  1.0    0.422414    0.587981    0.043369  Uiso   1.00  Se
   Se056  1.0    0.422465    0.838137    0.045377  Uiso   1.00  Se
   Se057  1.0    0.673361    0.090111    0.045457  Uiso   1.00  Se
   Se058  1.0    0.669218    0.341770    0.042659  Uiso   1.00  Se
   Se059  1.0    0.668997    0.588520    0.042574  Uiso   1.00  Se
   Se060  1.0    0.669423    0.835143    0.043529  Uiso   1.00  Se
   Se061  1.0    0.919293    0.087276    0.046560  Uiso   1.00  Se
   Se062  1.0    0.919608    0.339434    0.045376  Uiso   1.00  Se
   Se063  1.0    0.917472    0.589120    0.043483  Uiso   1.00  Se
   Se064  1.0    0.917469    0.836530    0.044465  Uiso   1.00  Se
    V001  1.0    0.993658    0.993738    0.099053  Uiso   1.00   V
    V002  1.0    1.005793    0.258548    0.099531  Uiso   1.00   V
    V003  1.0    0.994065    0.507552    0.097626  Uiso   1.00   V
    V004  1.0    0.990463    0.747890    0.098031  Uiso   1.00   V
    V005  1.0    0.259506    0.018409    0.097384  Uiso   1.00   V
    V006  1.0    0.265218    0.266683    0.098490  Uiso   1.00   V
    V007  1.0    0.266028    0.505877    0.098125  Uiso   1.00   V
    V008  1.0    0.257314    0.748749    0.096654  Uiso   1.00   V
    V009  1.0    0.509163    0.008467    0.097175  Uiso   1.00   V
    V010  1.0    0.508148    0.266683    0.097339  Uiso   1.00   V
    V011  1.0    0.509529    0.508100    0.097907  Uiso   1.00   V
    V012  1.0    0.506578    0.748288    0.097738  Uiso   1.00   V
    V013  1.0    0.749014    0.993027    0.097783  Uiso   1.00   V
    V014  1.0    0.749908    0.264432    0.097022  Uiso   1.00   V
    V015  1.0    0.746530    0.506970    0.097444  Uiso   1.00   V
    V016  1.0    0.746314    0.746297    0.098081  Uiso   1.00   V
    V017  1.0    0.967425    0.006297    0.305661  Uiso   1.00   V
    V018  1.0    0.987659    0.252218    0.303685  Uiso   1.00   V
    V019  1.0   -0.000989    0.484477    0.304064  Uiso   1.00   V
    V020  1.0    0.988156    0.709748    0.307172  Uiso   1.00   V
    V021  1.0    0.285365    0.012553    0.305539  Uiso   1.00   V
    V022  1.0    0.266562    0.276891    0.302705  Uiso   1.00   V
    V023  1.0    0.247271    0.500420    0.304867  Uiso   1.00   V
    V024  1.0    0.262959    0.737061    0.304786  Uiso   1.00   V
    V025  1.0    0.506600    0.993503    0.304122  Uiso   1.00   V
    V026  1.0    0.517186    0.245389    0.305016  Uiso   1.00   V
    V027  1.0    0.488239    0.510358    0.305490  Uiso   1.00   V
    V028  1.0    0.491733    0.747820    0.305097  Uiso   1.00   V
    V029  1.0    0.732422    0.998568    0.304215  Uiso   1.00   V
    V030  1.0    0.746790    0.239459    0.303793  Uiso   1.00   V
    V031  1.0    0.753217    0.476456    0.304612  Uiso   1.00   V
    V032  1.0    0.716359    0.745851    0.305082  Uiso   1.00   V
   Cr001  1.0    0.080029    0.917905    0.268680  Uiso   1.00  Cr
