data_created_by_vaspkit_code
_audit_creation_date          Mon Apr 10 11:33:23 2023
_pd_phase_name                     'CIF files'
_cell_length_a                    13.29870033
_cell_length_b                    13.29870033
_cell_length_c                    30.00000000
_cell_angle_alpha                     90.0000
_cell_angle_beta                      90.0000
_cell_angle_gamma                    120.0000
_symmetry_space_group_name_H-M           'P 1'
_symmetry_Int_Tables_number            1
loop_
_symmetry_equiv_pos_as_xyz
    'x, y, z'
loop_
   _atom_site_label
   _atom_site_occupancy
   _atom_site_fract_x
   _atom_site_fract_y
   _atom_site_fract_z
   _atom_site_thermal_displace_type
   _atom_site_U_iso_or_equiv
   _atom_site_type_symbol
   Se001  1.0    0.084016    0.171799    0.143507  Uiso   1.00  Se
   Se002  1.0    0.082517    0.418426    0.143466  Uiso   1.00  Se
   Se003  1.0    0.083977    0.669283    0.145420  Uiso   1.00  Se
   Se004  1.0    0.084946    0.920831    0.147064  Uiso   1.00  Se
   Se005  1.0    0.342842    0.177774    0.149075  Uiso   1.00  Se
   Se006  1.0    0.336846    0.422680    0.150118  Uiso   1.00  Se
   Se007  1.0    0.335112    0.668684    0.149018  Uiso   1.00  Se
   Se008  1.0    0.339042    0.920557    0.146904  Uiso   1.00  Se
   Se009  1.0    0.582755    0.170833    0.145187  Uiso   1.00  Se
   Se010  1.0    0.584075    0.423667    0.150665  Uiso   1.00  Se
   Se011  1.0    0.580664    0.667602    0.152266  Uiso   1.00  Se
   Se012  1.0    0.581554    0.915819    0.149806  Uiso   1.00  Se
   Se013  1.0    0.824603    0.167204    0.146027  Uiso   1.00  Se
   Se014  1.0    0.830276    0.419305    0.146631  Uiso   1.00  Se
   Se015  1.0    0.825398    0.665609    0.152059  Uiso   1.00  Se
   Se016  1.0    0.824644    0.914797    0.151809  Uiso   1.00  Se
   Se017  1.0    0.180106    0.112943    0.243104  Uiso   1.00  Se
   Se018  1.0    0.160833    0.338229    0.244647  Uiso   1.00  Se
   Se019  1.0    0.161427    0.572472    0.243861  Uiso   1.00  Se
   Se020  1.0    0.175618    0.814820    0.243594  Uiso   1.00  Se
   Se021  1.0    0.431069    0.086241    0.242565  Uiso   1.00  Se
   Se022  1.0    0.425119    0.341952    0.254157  Uiso   1.00  Se
   Se023  1.0    0.410486    0.584177    0.248592  Uiso   1.00  Se
   Se024  1.0    0.415806    0.830314    0.247372  Uiso   1.00  Se
   Se025  1.0    0.667898    0.083887    0.243846  Uiso   1.00  Se
   Se026  1.0    0.671878    0.329560    0.242981  Uiso   1.00  Se
   Se027  1.0    0.659055    0.578481    0.255986  Uiso   1.00  Se
   Se028  1.0    0.654700    0.833576    0.249035  Uiso   1.00  Se
   Se029  1.0    0.905934    0.087033    0.243420  Uiso   1.00  Se
   Se030  1.0    0.914286    0.329500    0.242622  Uiso   1.00  Se
   Se031  1.0    0.912882    0.568244    0.242132  Uiso   1.00  Se
   Se032  1.0    0.887987    0.820959    0.247847  Uiso   1.00  Se
   Se033  1.0    0.082043    0.165417    0.349417  Uiso   1.00  Se
   Se034  1.0    0.077861    0.409709    0.355202  Uiso   1.00  Se
   Se035  1.0    0.081721    0.657120    0.351758  Uiso   1.00  Se
   Se036  1.0    0.084507    0.916162    0.330520  Uiso   1.00  Se
   Se037  1.0    0.337854    0.171437    0.345418  Uiso   1.00  Se
   Se038  1.0    0.325967    0.417537    0.357635  Uiso   1.00  Se
   Se039  1.0    0.326088    0.659759    0.356900  Uiso   1.00  Se
   Se040  1.0    0.334898    0.910053    0.348876  Uiso   1.00  Se
   Se041  1.0    0.589246    0.163974    0.353730  Uiso   1.00  Se
   Se042  1.0    0.584326    0.415279    0.347741  Uiso   1.00  Se
   Se043  1.0    0.574485    0.668278    0.359655  Uiso   1.00  Se
   Se044  1.0    0.582345    0.917190    0.355188  Uiso   1.00  Se
   Se045  1.0    0.833751    0.166909    0.355102  Uiso   1.00  Se
   Se046  1.0    0.835596    0.409683    0.354211  Uiso   1.00  Se
   Se047  1.0    0.831116    0.663258    0.345643  Uiso   1.00  Se
   Se048  1.0    0.828111    0.919094    0.353997  Uiso   1.00  Se
   Se049  1.0    0.164152    0.085934    0.049488  Uiso   1.00  Se
   Se050  1.0    0.166523    0.335173    0.045621  Uiso   1.00  Se
   Se051  1.0    0.167907    0.585037    0.043824  Uiso   1.00  Se
   Se052  1.0    0.164523    0.837980    0.049811  Uiso   1.00  Se
   Se053  1.0    0.426215    0.092293    0.042664  Uiso   1.00  Se
   Se054  1.0    0.422485    0.343895    0.040891  Uiso   1.00  Se
   Se055  1.0    0.421103    0.588015    0.041290  Uiso   1.00  Se
   Se056  1.0    0.420515    0.834164    0.041656  Uiso   1.00  Se
   Se057  1.0    0.669613    0.085195    0.042027  Uiso   1.00  Se
   Se058  1.0    0.668910    0.344236    0.039622  Uiso   1.00  Se
   Se059  1.0    0.667061    0.589939    0.041424  Uiso   1.00  Se
   Se060  1.0    0.666144    0.832174    0.041637  Uiso   1.00  Se
   Se061  1.0    0.911500    0.080960    0.042688  Uiso   1.00  Se
   Se062  1.0    0.914613    0.337050    0.040963  Uiso   1.00  Se
   Se063  1.0    0.914573    0.588989    0.042352  Uiso   1.00  Se
   Se064  1.0    0.912289    0.834177    0.044395  Uiso   1.00  Se
    V001  1.0    0.978522    0.991311    0.098988  Uiso   1.00   V
    V002  1.0    0.980753    0.244365    0.095307  Uiso   1.00   V
    V003  1.0    0.991241    0.501582    0.095086  Uiso   1.00   V
    V004  1.0    0.979542    0.742114    0.098574  Uiso   1.00   V
    V005  1.0    0.275419    0.020264    0.095596  Uiso   1.00   V
    V006  1.0    0.270157    0.267271    0.095861  Uiso   1.00   V
    V007  1.0    0.263655    0.507964    0.095483  Uiso   1.00   V
    V008  1.0    0.261889    0.751864    0.094897  Uiso   1.00   V
    V009  1.0    0.509881    0.996506    0.094695  Uiso   1.00   V
    V010  1.0    0.511515    0.272074    0.095010  Uiso   1.00   V
    V011  1.0    0.506758    0.512197    0.096436  Uiso   1.00   V
    V012  1.0    0.506977    0.749730    0.096375  Uiso   1.00   V
    V013  1.0    0.741605    0.989485    0.096020  Uiso   1.00   V
    V014  1.0    0.742327    0.259427    0.093637  Uiso   1.00   V
    V015  1.0    0.742334    0.506138    0.096086  Uiso   1.00   V
    V016  1.0    0.740486    0.745476    0.097863  Uiso   1.00   V
    V017  1.0    0.973793    0.010613    0.297704  Uiso   1.00   V
    V018  1.0   -0.008764    0.254530    0.298978  Uiso   1.00   V
    V019  1.0   -0.002518    0.483487    0.298373  Uiso   1.00   V
    V020  1.0    0.992343    0.712611    0.296826  Uiso   1.00   V
    V021  1.0    0.287541    0.012637    0.297915  Uiso   1.00   V
    V022  1.0    0.250874    0.278770    0.298195  Uiso   1.00   V
    V023  1.0    0.237656    0.496011    0.300668  Uiso   1.00   V
    V024  1.0    0.248316    0.724260    0.298640  Uiso   1.00   V
    V025  1.0    0.515246    1.000738    0.298884  Uiso   1.00   V
    V026  1.0    0.521565    0.242892    0.298115  Uiso   1.00   V
    V027  1.0    0.485059    0.515003    0.303802  Uiso   1.00   V
    V028  1.0    0.487077    0.748404    0.302338  Uiso   1.00   V
    V029  1.0    0.745141    1.010462    0.300472  Uiso   1.00   V
    V030  1.0    0.757345    0.247038    0.298735  Uiso   1.00   V
    V031  1.0    0.757097    0.479467    0.298542  Uiso   1.00   V
    V032  1.0    0.720592    0.752249    0.302791  Uiso   1.00   V
   Cr001  1.0    0.083495    0.919733    0.251175  Uiso   1.00  Cr
