data_created_by_vaspkit_code
_audit_creation_date          Mon Apr 10 11:33:23 2023
_pd_phase_name                     'CIF files'
_cell_length_a                    13.29870033
_cell_length_b                    13.29870033
_cell_length_c                    30.00000000
_cell_angle_alpha                     90.0000
_cell_angle_beta                      90.0000
_cell_angle_gamma                    120.0000
_symmetry_space_group_name_H-M           'P 1'
_symmetry_Int_Tables_number            1
loop_
_symmetry_equiv_pos_as_xyz
    'x, y, z'
loop_
   _atom_site_label
   _atom_site_occupancy
   _atom_site_fract_x
   _atom_site_fract_y
   _atom_site_fract_z
   _atom_site_thermal_displace_type
   _atom_site_U_iso_or_equiv
   _atom_site_type_symbol
   Se001  1.0    0.081315    0.169780    0.144028  Uiso   1.00  Se
   Se002  1.0    0.080281    0.414434    0.143187  Uiso   1.00  Se
   Se003  1.0    0.081781    0.659956    0.144010  Uiso   1.00  Se
   Se004  1.0    0.082331    0.915653    0.145791  Uiso   1.00  Se
   Se005  1.0    0.340642    0.174297    0.151192  Uiso   1.00  Se
   Se006  1.0    0.335850    0.420219    0.150424  Uiso   1.00  Se
   Se007  1.0    0.335033    0.664849    0.148774  Uiso   1.00  Se
   Se008  1.0    0.340082    0.915463    0.148733  Uiso   1.00  Se
   Se009  1.0    0.581636    0.165762    0.146272  Uiso   1.00  Se
   Se010  1.0    0.582031    0.419145    0.151188  Uiso   1.00  Se
   Se011  1.0    0.579674    0.664594    0.151957  Uiso   1.00  Se
   Se012  1.0    0.581062    0.913082    0.149377  Uiso   1.00  Se
   Se013  1.0    0.823802    0.164050    0.145600  Uiso   1.00  Se
   Se014  1.0    0.825580    0.410998    0.146141  Uiso   1.00  Se
   Se015  1.0    0.822918    0.659184    0.150637  Uiso   1.00  Se
   Se016  1.0    0.821739    0.912393    0.150427  Uiso   1.00  Se
   Se017  1.0    0.177715    0.111759    0.244105  Uiso   1.00  Se
   Se018  1.0    0.164408    0.344063    0.245217  Uiso   1.00  Se
   Se019  1.0    0.162286    0.574599    0.245150  Uiso   1.00  Se
   Se020  1.0    0.175789    0.816854    0.240404  Uiso   1.00  Se
   Se021  1.0    0.431083    0.088758    0.241953  Uiso   1.00  Se
   Se022  1.0    0.424257    0.345566    0.255104  Uiso   1.00  Se
   Se023  1.0    0.414183    0.590742    0.251425  Uiso   1.00  Se
   Se024  1.0    0.419947    0.836443    0.248724  Uiso   1.00  Se
   Se025  1.0    0.669381    0.091012    0.243490  Uiso   1.00  Se
   Se026  1.0    0.668157    0.333178    0.243874  Uiso   1.00  Se
   Se027  1.0    0.660328    0.582317    0.254876  Uiso   1.00  Se
   Se028  1.0    0.657814    0.841694    0.247954  Uiso   1.00  Se
   Se029  1.0    0.909636    0.096625    0.240229  Uiso   1.00  Se
   Se030  1.0    0.912752    0.334097    0.242447  Uiso   1.00  Se
   Se031  1.0    0.910449    0.568176    0.241105  Uiso   1.00  Se
   Se032  1.0    0.887016    0.823765    0.242124  Uiso   1.00  Se
   Se033  1.0    0.079058    0.165927    0.347525  Uiso   1.00  Se
   Se034  1.0    0.076051    0.413333    0.355661  Uiso   1.00  Se
   Se035  1.0    0.082149    0.661988    0.350682  Uiso   1.00  Se
   Se036  1.0    0.081560    0.915417    0.324193  Uiso   1.00  Se
   Se037  1.0    0.329937    0.165715    0.342949  Uiso   1.00  Se
   Se038  1.0    0.329653    0.422752    0.358287  Uiso   1.00  Se
   Se039  1.0    0.330242    0.666480    0.356697  Uiso   1.00  Se
   Se040  1.0    0.335776    0.914583    0.348654  Uiso   1.00  Se
   Se041  1.0    0.588426    0.169482    0.354563  Uiso   1.00  Se
   Se042  1.0    0.584181    0.417629    0.348938  Uiso   1.00  Se
   Se043  1.0    0.586657    0.679267    0.359096  Uiso   1.00  Se
   Se044  1.0    0.591510    0.928688    0.355506  Uiso   1.00  Se
   Se045  1.0    0.835975    0.173396    0.354292  Uiso   1.00  Se
   Se046  1.0    0.833952    0.414348    0.354845  Uiso   1.00  Se
   Se047  1.0    0.836592    0.671079    0.343564  Uiso   1.00  Se
   Se048  1.0    0.838337    0.928539    0.350119  Uiso   1.00  Se
   Se049  1.0    0.163997    0.080773    0.051332  Uiso   1.00  Se
   Se050  1.0    0.166660    0.330751    0.045995  Uiso   1.00  Se
   Se051  1.0    0.166541    0.581601    0.044902  Uiso   1.00  Se
   Se052  1.0    0.164063    0.834788    0.050888  Uiso   1.00  Se
   Se053  1.0    0.422351    0.087279    0.043350  Uiso   1.00  Se
   Se054  1.0    0.420495    0.338226    0.042055  Uiso   1.00  Se
   Se055  1.0    0.421520    0.584453    0.041174  Uiso   1.00  Se
   Se056  1.0    0.420994    0.831782    0.041256  Uiso   1.00  Se
   Se057  1.0    0.665117    0.080267    0.039664  Uiso   1.00  Se
   Se058  1.0    0.662806    0.335510    0.039697  Uiso   1.00  Se
   Se059  1.0    0.665116    0.584490    0.041431  Uiso   1.00  Se
   Se060  1.0    0.665932    0.829589    0.041188  Uiso   1.00  Se
   Se061  1.0    0.909955    0.079285    0.041096  Uiso   1.00  Se
   Se062  1.0    0.910457    0.330073    0.038787  Uiso   1.00  Se
   Se063  1.0    0.909375    0.579430    0.041010  Uiso   1.00  Se
   Se064  1.0    0.912672    0.830649    0.045812  Uiso   1.00  Se
    V001  1.0    0.974645    0.995926    0.098072  Uiso   1.00   V
    V002  1.0    0.979757    0.243869    0.094213  Uiso   1.00   V
    V003  1.0    0.981702    0.486786    0.093833  Uiso   1.00   V
    V004  1.0    0.976031    0.726793    0.097843  Uiso   1.00   V
    V005  1.0    0.278241    0.015892    0.098789  Uiso   1.00   V
    V006  1.0    0.269193    0.262130    0.096934  Uiso   1.00   V
    V007  1.0    0.264752    0.504709    0.094887  Uiso   1.00   V
    V008  1.0    0.265796    0.752543    0.094786  Uiso   1.00   V
    V009  1.0    0.509129   -0.004289    0.094931  Uiso   1.00   V
    V010  1.0    0.508440    0.264822    0.096326  Uiso   1.00   V
    V011  1.0    0.506523    0.507871    0.096719  Uiso   1.00   V
    V012  1.0    0.506947    0.747457    0.096008  Uiso   1.00   V
    V013  1.0    0.738430    0.991718    0.094795  Uiso   1.00   V
    V014  1.0    0.736996    0.247068    0.092884  Uiso   1.00   V
    V015  1.0    0.737372    0.495887    0.095562  Uiso   1.00   V
    V016  1.0    0.738594    0.742689    0.096977  Uiso   1.00   V
    V017  1.0    0.980846    0.015058    0.291021  Uiso   1.00   V
    V018  1.0   -0.007987    0.259262    0.298010  Uiso   1.00   V
    V019  1.0   -0.005863    0.485951    0.298647  Uiso   1.00   V
    V020  1.0    0.996090    0.716963    0.293988  Uiso   1.00   V
    V021  1.0    0.279690    0.002627    0.294156  Uiso   1.00   V
    V022  1.0    0.250654    0.282884    0.299828  Uiso   1.00   V
    V023  1.0    0.236521    0.498698    0.302255  Uiso   1.00   V
    V024  1.0    0.249913    0.730322    0.298809  Uiso   1.00   V
    V025  1.0    0.518901    1.009686    0.299336  Uiso   1.00   V
    V026  1.0    0.515178    0.243323    0.298504  Uiso   1.00   V
    V027  1.0    0.493265    0.522729    0.304893  Uiso   1.00   V
    V028  1.0    0.497986    0.762096    0.303654  Uiso   1.00   V
    V029  1.0    0.751970    1.019625    0.298698  Uiso   1.00   V
    V030  1.0    0.755876    0.252968    0.298832  Uiso   1.00   V
    V031  1.0    0.755983    0.484591    0.298866  Uiso   1.00   V
    V032  1.0    0.729335    0.761312    0.300062  Uiso   1.00   V
   Cr001  1.0    0.080610    0.918954    0.236614  Uiso   1.00  Cr
