data_created_by_vaspkit_code
_audit_creation_date          Mon Apr 10 11:33:22 2023
_pd_phase_name                     'CIF files'
_cell_length_a                    13.29870033
_cell_length_b                    13.29870033
_cell_length_c                    30.00000000
_cell_angle_alpha                     90.0000
_cell_angle_beta                      90.0000
_cell_angle_gamma                    120.0000
_symmetry_space_group_name_H-M           'P 1'
_symmetry_Int_Tables_number            1
loop_
_symmetry_equiv_pos_as_xyz
    'x, y, z'
loop_
   _atom_site_label
   _atom_site_occupancy
   _atom_site_fract_x
   _atom_site_fract_y
   _atom_site_fract_z
   _atom_site_thermal_displace_type
   _atom_site_U_iso_or_equiv
   _atom_site_type_symbol
   Se001  1.0    0.094359    0.172691    0.153160  Uiso   1.00  Se
   Se002  1.0    0.093431    0.422075    0.153242  Uiso   1.00  Se
   Se003  1.0    0.093412    0.670585    0.153254  Uiso   1.00  Se
   Se004  1.0    0.094347    0.920886    0.153175  Uiso   1.00  Se
   Se005  1.0    0.335687    0.167454    0.151758  Uiso   1.00  Se
   Se006  1.0    0.337520    0.420632    0.153538  Uiso   1.00  Se
   Se007  1.0    0.337516    0.668382    0.154172  Uiso   1.00  Se
   Se008  1.0    0.337480    0.916100    0.153534  Uiso   1.00  Se
   Se009  1.0    0.580086    0.164315    0.150475  Uiso   1.00  Se
   Se010  1.0    0.580120    0.415012    0.150479  Uiso   1.00  Se
   Se011  1.0    0.581599    0.666142    0.152271  Uiso   1.00  Se
   Se012  1.0    0.581590    0.914708    0.152263  Uiso   1.00  Se
   Se013  1.0    0.837303    0.168578    0.145093  Uiso   1.00  Se
   Se014  1.0    0.836482    0.417832    0.144736  Uiso   1.00  Se
   Se015  1.0    0.837284    0.667974    0.145119  Uiso   1.00  Se
   Se016  1.0    0.838157    0.918687    0.145308  Uiso   1.00  Se
   Se017  1.0    0.162119    0.080678    0.259060  Uiso   1.00  Se
   Se018  1.0    0.163054    0.331067    0.258197  Uiso   1.00  Se
   Se019  1.0    0.165239    0.582230    0.257131  Uiso   1.00  Se
   Se020  1.0    0.163060    0.831227    0.258192  Uiso   1.00  Se
   Se021  1.0    0.421091    0.085779    0.248274  Uiso   1.00  Se
   Se022  1.0    0.421085    0.334503    0.248278  Uiso   1.00  Se
   Se023  1.0    0.422207    0.585670    0.249849  Uiso   1.00  Se
   Se024  1.0    0.422213    0.835760    0.249841  Uiso   1.00  Se
   Se025  1.0    0.662881    0.084280    0.246422  Uiso   1.00  Se
   Se026  1.0    0.663070    0.331144    0.246070  Uiso   1.00  Se
   Se027  1.0    0.662874    0.577819    0.246427  Uiso   1.00  Se
   Se028  1.0    0.667391    0.833314    0.249776  Uiso   1.00  Se
   Se029  1.0    0.906182    0.080636    0.247056  Uiso   1.00  Se
   Se030  1.0    0.905601    0.329948    0.245462  Uiso   1.00  Se
   Se031  1.0    0.905613    0.574873    0.245460  Uiso   1.00  Se
   Se032  1.0    0.906161    0.824791    0.247060  Uiso   1.00  Se
   Se033  1.0    0.081487    0.172665    0.347496  Uiso   1.00  Se
   Se034  1.0    0.079313    0.416738    0.348397  Uiso   1.00  Se
   Se035  1.0    0.079307    0.661800    0.348402  Uiso   1.00  Se
   Se036  1.0    0.081494    0.908051    0.347493  Uiso   1.00  Se
   Se037  1.0    0.337669    0.168452    0.358171  Uiso   1.00  Se
   Se038  1.0    0.338526    0.419201    0.358320  Uiso   1.00  Se
   Se039  1.0    0.337833    0.668533    0.358493  Uiso   1.00  Se
   Se040  1.0    0.338525    0.918525    0.358312  Uiso   1.00  Se
   Se041  1.0    0.580763    0.166493    0.357778  Uiso   1.00  Se
   Se042  1.0    0.580757    0.413475    0.357771  Uiso   1.00  Se
   Se043  1.0    0.579308    0.661691    0.357300  Uiso   1.00  Se
   Se044  1.0    0.579322    0.916840    0.357307  Uiso   1.00  Se
   Se045  1.0    0.822468    0.164391    0.356418  Uiso   1.00  Se
   Se046  1.0    0.822788    0.411008    0.356540  Uiso   1.00  Se
   Se047  1.0    0.822472    0.657310    0.356412  Uiso   1.00  Se
   Se048  1.0    0.815149    0.907194    0.355369  Uiso   1.00  Se
   Se049  1.0    0.179903    0.089565    0.045828  Uiso   1.00  Se
   Se050  1.0    0.178190    0.340577    0.044741  Uiso   1.00  Se
   Se051  1.0    0.177879    0.588541    0.044340  Uiso   1.00  Se
   Se052  1.0    0.178141    0.836808    0.044742  Uiso   1.00  Se
   Se053  1.0    0.421199    0.083303    0.043942  Uiso   1.00  Se
   Se054  1.0    0.421239    0.337163    0.043941  Uiso   1.00  Se
   Se055  1.0    0.421183    0.586809    0.043473  Uiso   1.00  Se
   Se056  1.0    0.421152    0.833580    0.043467  Uiso   1.00  Se
   Se057  1.0    0.665644    0.081515    0.043615  Uiso   1.00  Se
   Se058  1.0    0.665174    0.332230    0.043394  Uiso   1.00  Se
   Se059  1.0    0.665681    0.583357    0.043621  Uiso   1.00  Se
   Se060  1.0    0.666202    0.832726    0.043885  Uiso   1.00  Se
   Se061  1.0    0.922673    0.085768    0.051342  Uiso   1.00  Se
   Se062  1.0    0.922338    0.335745    0.050470  Uiso   1.00  Se
   Se063  1.0    0.922368    0.585870    0.050454  Uiso   1.00  Se
   Se064  1.0    0.922653    0.836126    0.051343  Uiso   1.00  Se
    V001  1.0    0.029030    0.014100    0.099265  Uiso   1.00   V
    V002  1.0    0.026790    0.264163    0.099258  Uiso   1.00   V
    V003  1.0    0.025508    0.512395    0.099049  Uiso   1.00   V
    V004  1.0    0.026733    0.761814    0.099268  Uiso   1.00   V
    V005  1.0    0.265012    0.000397    0.099198  Uiso   1.00   V
    V006  1.0    0.265066    0.263869    0.099201  Uiso   1.00   V
    V007  1.0    0.264306    0.510751    0.099290  Uiso   1.00   V
    V008  1.0    0.264279    0.752784    0.099283  Uiso   1.00   V
    V009  1.0    0.494179    0.991679    0.098420  Uiso   1.00   V
    V010  1.0    0.492593    0.245932    0.097862  Uiso   1.00   V
    V011  1.0    0.494234    0.501751    0.098429  Uiso   1.00   V
    V012  1.0    0.494475    0.746850    0.098811  Uiso   1.00   V
    V013  1.0    0.733036    0.991027    0.098311  Uiso   1.00   V
    V014  1.0    0.732637    0.240805    0.097745  Uiso   1.00   V
    V015  1.0    0.732733    0.491119    0.097765  Uiso   1.00   V
    V016  1.0    0.733009    0.741210    0.098308  Uiso   1.00   V
    V017  1.0    0.965292    0.982273    0.299207  Uiso   1.00   V
    V018  1.0    0.966251    0.240752    0.299976  Uiso   1.00   V
    V019  1.0    0.970047    0.484640    0.300547  Uiso   1.00   V
    V020  1.0    0.966243    0.724720    0.299972  Uiso   1.00   V
    V021  1.0    0.278384    0.012845    0.303621  Uiso   1.00   V
    V022  1.0    0.278365    0.264775    0.303620  Uiso   1.00   V
    V023  1.0    0.274612    0.512912    0.303816  Uiso   1.00   V
    V024  1.0    0.274598    0.760874    0.303808  Uiso   1.00   V
    V025  1.0    0.509120    0.007993    0.302635  Uiso   1.00   V
    V026  1.0    0.509991    0.254593    0.302672  Uiso   1.00   V
    V027  1.0    0.509105    0.500306    0.302634  Uiso   1.00   V
    V028  1.0    0.510850    0.755062    0.302976  Uiso   1.00   V
    V029  1.0    0.733812    0.002969    0.301325  Uiso   1.00   V
    V030  1.0    0.735539    0.246992    0.301425  Uiso   1.00   V
    V031  1.0    0.735525    0.487757    0.301427  Uiso   1.00   V
    V032  1.0    0.733790    0.730071    0.301326  Uiso   1.00   V
   Cr001  1.0    0.004846    0.001998    0.392841  Uiso   1.00  Cr
