data_created_by_vaspkit_code
_audit_creation_date          Mon Apr 10 11:33:22 2023
_pd_phase_name                     'CIF files'
_cell_length_a                    13.29870033
_cell_length_b                    13.29870033
_cell_length_c                    30.00000000
_cell_angle_alpha                     90.0000
_cell_angle_beta                      90.0000
_cell_angle_gamma                    120.0000
_symmetry_space_group_name_H-M           'P 1'
_symmetry_Int_Tables_number            1
loop_
_symmetry_equiv_pos_as_xyz
    'x, y, z'
loop_
   _atom_site_label
   _atom_site_occupancy
   _atom_site_fract_x
   _atom_site_fract_y
   _atom_site_fract_z
   _atom_site_thermal_displace_type
   _atom_site_U_iso_or_equiv
   _atom_site_type_symbol
   Se001  1.0    0.092337    0.169714    0.153363  Uiso   1.00  Se
   Se002  1.0    0.092790    0.418455    0.153191  Uiso   1.00  Se
   Se003  1.0    0.093710    0.669037    0.153036  Uiso   1.00  Se
   Se004  1.0    0.093342    0.920504    0.153204  Uiso   1.00  Se
   Se005  1.0    0.336522    0.168269    0.153805  Uiso   1.00  Se
   Se006  1.0    0.336566    0.416194    0.154218  Uiso   1.00  Se
   Se007  1.0    0.336754    0.664260    0.153384  Uiso   1.00  Se
   Se008  1.0    0.335143    0.915396    0.152076  Uiso   1.00  Se
   Se009  1.0    0.579179    0.162689    0.150771  Uiso   1.00  Se
   Se010  1.0    0.580627    0.414070    0.152183  Uiso   1.00  Se
   Se011  1.0    0.580824    0.662931    0.151993  Uiso   1.00  Se
   Se012  1.0    0.579727    0.912139    0.150686  Uiso   1.00  Se
   Se013  1.0    0.835611    0.165709    0.145183  Uiso   1.00  Se
   Se014  1.0    0.836412    0.415855    0.144705  Uiso   1.00  Se
   Se015  1.0    0.837083    0.666520    0.145290  Uiso   1.00  Se
   Se016  1.0    0.836481    0.916306    0.145592  Uiso   1.00  Se
   Se017  1.0    0.170797    0.083850    0.260711  Uiso   1.00  Se
   Se018  1.0    0.169893    0.333150    0.258427  Uiso   1.00  Se
   Se019  1.0    0.170019    0.582058    0.256402  Uiso   1.00  Se
   Se020  1.0    0.168241    0.830894    0.257741  Uiso   1.00  Se
   Se021  1.0    0.424344    0.082826    0.250053  Uiso   1.00  Se
   Se022  1.0    0.427317    0.336547    0.251757  Uiso   1.00  Se
   Se023  1.0    0.427857    0.588328    0.249645  Uiso   1.00  Se
   Se024  1.0    0.426615    0.835578    0.248571  Uiso   1.00  Se
   Se025  1.0    0.668317    0.079340    0.246584  Uiso   1.00  Se
   Se026  1.0    0.666076    0.327888    0.247072  Uiso   1.00  Se
   Se027  1.0    0.670275    0.585359    0.248546  Uiso   1.00  Se
   Se028  1.0    0.670220    0.834920    0.246979  Uiso   1.00  Se
   Se029  1.0    0.914281    0.080402    0.247896  Uiso   1.00  Se
   Se030  1.0    0.908308    0.327469    0.244188  Uiso   1.00  Se
   Se031  1.0    0.907257    0.572812    0.243935  Uiso   1.00  Se
   Se032  1.0    0.914344    0.830924    0.248238  Uiso   1.00  Se
   Se033  1.0    0.084778    0.179970    0.348838  Uiso   1.00  Se
   Se034  1.0    0.083611    0.419233    0.347656  Uiso   1.00  Se
   Se035  1.0    0.082551    0.659383    0.347099  Uiso   1.00  Se
   Se036  1.0    0.082980    0.899321    0.347778  Uiso   1.00  Se
   Se037  1.0    0.347405    0.170343    0.361362  Uiso   1.00  Se
   Se038  1.0    0.345914    0.425420    0.359415  Uiso   1.00  Se
   Se039  1.0    0.343736    0.670324    0.358743  Uiso   1.00  Se
   Se040  1.0    0.344196    0.915155    0.358973  Uiso   1.00  Se
   Se041  1.0    0.588134    0.162925    0.358127  Uiso   1.00  Se
   Se042  1.0    0.586422    0.415692    0.356596  Uiso   1.00  Se
   Se043  1.0    0.588725    0.670304    0.358312  Uiso   1.00  Se
   Se044  1.0    0.588187    0.916627    0.358734  Uiso   1.00  Se
   Se045  1.0    0.828339    0.163432    0.356482  Uiso   1.00  Se
   Se046  1.0    0.827544    0.409834    0.354891  Uiso   1.00  Se
   Se047  1.0    0.826484    0.658375    0.354589  Uiso   1.00  Se
   Se048  1.0    0.830629    0.914214    0.357545  Uiso   1.00  Se
   Se049  1.0    0.177086    0.088052    0.044977  Uiso   1.00  Se
   Se050  1.0    0.176693    0.336150    0.044529  Uiso   1.00  Se
   Se051  1.0    0.177292    0.584978    0.044766  Uiso   1.00  Se
   Se052  1.0    0.178756    0.837466    0.045858  Uiso   1.00  Se
   Se053  1.0    0.420363    0.084686    0.044260  Uiso   1.00  Se
   Se054  1.0    0.419916    0.334344    0.043674  Uiso   1.00  Se
   Se055  1.0    0.420154    0.581654    0.043464  Uiso   1.00  Se
   Se056  1.0    0.420316    0.831441    0.043862  Uiso   1.00  Se
   Se057  1.0    0.664436    0.079842    0.043569  Uiso   1.00  Se
   Se058  1.0    0.664338    0.330774    0.043723  Uiso   1.00  Se
   Se059  1.0    0.665167    0.580752    0.043856  Uiso   1.00  Se
   Se060  1.0    0.665092    0.829834    0.043663  Uiso   1.00  Se
   Se061  1.0    0.921544    0.083611    0.050311  Uiso   1.00  Se
   Se062  1.0    0.921159    0.333571    0.050543  Uiso   1.00  Se
   Se063  1.0    0.921622    0.583843    0.051262  Uiso   1.00  Se
   Se064  1.0    0.921905    0.833795    0.051083  Uiso   1.00  Se
    V001  1.0    0.024998    0.011593    0.099332  Uiso   1.00   V
    V002  1.0    0.023922    0.259520    0.099099  Uiso   1.00   V
    V003  1.0    0.026147    0.509759    0.099258  Uiso   1.00   V
    V004  1.0    0.027484    0.761928    0.099230  Uiso   1.00   V
    V005  1.0    0.264106    0.011144    0.099409  Uiso   1.00   V
    V006  1.0    0.263106    0.257916    0.099427  Uiso   1.00   V
    V007  1.0    0.263297    0.500742    0.099293  Uiso   1.00   V
    V008  1.0    0.264221    0.749249    0.099269  Uiso   1.00   V
    V009  1.0    0.491979    0.992943    0.098075  Uiso   1.00   V
    V010  1.0    0.493212    0.249391    0.098599  Uiso   1.00   V
    V011  1.0    0.493477    0.495187    0.098791  Uiso   1.00   V
    V012  1.0    0.493454    0.740281    0.098354  Uiso   1.00   V
    V013  1.0    0.732775    0.988970    0.097941  Uiso   1.00   V
    V014  1.0    0.731471    0.238427    0.097893  Uiso   1.00   V
    V015  1.0    0.732023    0.489312    0.098229  Uiso   1.00   V
    V016  1.0    0.732930    0.739591    0.098267  Uiso   1.00   V
    V017  1.0    0.976435    0.987588    0.301757  Uiso   1.00   V
    V018  1.0    0.970959    0.243153    0.299438  Uiso   1.00   V
    V019  1.0    0.972796    0.482814    0.299062  Uiso   1.00   V
    V020  1.0    0.968879    0.720067    0.298676  Uiso   1.00   V
    V021  1.0    0.279679    0.007751    0.305460  Uiso   1.00   V
    V022  1.0    0.281997    0.268094    0.305869  Uiso   1.00   V
    V023  1.0    0.280082    0.515246    0.303910  Uiso   1.00   V
    V024  1.0    0.278972    0.759390    0.303379  Uiso   1.00   V
    V025  1.0    0.514850    0.000258    0.302997  Uiso   1.00   V
    V026  1.0    0.516789    0.248470    0.303658  Uiso   1.00   V
    V027  1.0    0.516565    0.513289    0.303489  Uiso   1.00   V
    V028  1.0    0.515105    0.759798    0.302976  Uiso   1.00   V
    V029  1.0    0.742030    0.995120    0.301889  Uiso   1.00   V
    V030  1.0    0.740383    0.237271    0.301083  Uiso   1.00   V
    V031  1.0    0.739059    0.487926    0.300925  Uiso   1.00   V
    V032  1.0    0.741774    0.751614    0.301721  Uiso   1.00   V
   Cr001  1.0    0.147850    0.070460    0.388678  Uiso   1.00  Cr
