data_created_by_vaspkit_code
_audit_creation_date          Mon Apr 10 11:33:23 2023
_pd_phase_name                     'CIF files'
_cell_length_a                    13.29870033
_cell_length_b                    13.29870033
_cell_length_c                    30.00000000
_cell_angle_alpha                     90.0000
_cell_angle_beta                      90.0000
_cell_angle_gamma                    120.0000
_symmetry_space_group_name_H-M           'P 1'
_symmetry_Int_Tables_number            1
loop_
_symmetry_equiv_pos_as_xyz
    'x, y, z'
loop_
   _atom_site_label
   _atom_site_occupancy
   _atom_site_fract_x
   _atom_site_fract_y
   _atom_site_fract_z
   _atom_site_thermal_displace_type
   _atom_site_U_iso_or_equiv
   _atom_site_type_symbol
   Se001  1.0    0.089333    0.170544    0.146713  Uiso   1.00  Se
   Se002  1.0    0.088405    0.423172    0.146042  Uiso   1.00  Se
   Se003  1.0    0.088601    0.674875    0.146927  Uiso   1.00  Se
   Se004  1.0    0.087514    0.921773    0.147804  Uiso   1.00  Se
   Se005  1.0    0.340988    0.175128    0.148900  Uiso   1.00  Se
   Se006  1.0    0.341443    0.423498    0.150564  Uiso   1.00  Se
   Se007  1.0    0.340741    0.671569    0.149321  Uiso   1.00  Se
   Se008  1.0    0.338484    0.922768    0.146296  Uiso   1.00  Se
   Se009  1.0    0.585954    0.173349    0.147859  Uiso   1.00  Se
   Se010  1.0    0.588682    0.425039    0.150417  Uiso   1.00  Se
   Se011  1.0    0.587410    0.670275    0.151254  Uiso   1.00  Se
   Se012  1.0    0.586538    0.919300    0.149485  Uiso   1.00  Se
   Se013  1.0    0.831750    0.170066    0.147557  Uiso   1.00  Se
   Se014  1.0    0.834634    0.424410    0.149271  Uiso   1.00  Se
   Se015  1.0    0.834150    0.671486    0.151062  Uiso   1.00  Se
   Se016  1.0    0.833933    0.917529    0.151443  Uiso   1.00  Se
   Se017  1.0    0.171094    0.077053    0.256464  Uiso   1.00  Se
   Se018  1.0    0.160793    0.324670    0.249979  Uiso   1.00  Se
   Se019  1.0    0.164981    0.580760    0.247446  Uiso   1.00  Se
   Se020  1.0    0.161101    0.822600    0.253567  Uiso   1.00  Se
   Se021  1.0    0.420190    0.079026    0.248497  Uiso   1.00  Se
   Se022  1.0    0.427291    0.337196    0.248503  Uiso   1.00  Se
   Se023  1.0    0.409492    0.579921    0.247011  Uiso   1.00  Se
   Se024  1.0    0.408560    0.825040    0.247232  Uiso   1.00  Se
   Se025  1.0    0.654155    0.074978    0.246303  Uiso   1.00  Se
   Se026  1.0    0.667868    0.329755    0.247342  Uiso   1.00  Se
   Se027  1.0    0.667649    0.583517    0.255531  Uiso   1.00  Se
   Se028  1.0    0.650631    0.825686    0.248569  Uiso   1.00  Se
   Se029  1.0    0.895666    0.080022    0.249349  Uiso   1.00  Se
   Se030  1.0    0.910362    0.334792    0.246346  Uiso   1.00  Se
   Se031  1.0    0.917711    0.580601    0.250004  Uiso   1.00  Se
   Se032  1.0    0.910310    0.828909    0.262863  Uiso   1.00  Se
   Se033  1.0    0.072237    0.170005    0.352709  Uiso   1.00  Se
   Se034  1.0    0.080768    0.410119    0.355210  Uiso   1.00  Se
   Se035  1.0    0.085631    0.648872    0.360052  Uiso   1.00  Se
   Se036  1.0    0.088764    0.884457    0.367363  Uiso   1.00  Se
   Se037  1.0    0.338532    0.164590    0.352871  Uiso   1.00  Se
   Se038  1.0    0.329579    0.412616    0.355993  Uiso   1.00  Se
   Se039  1.0    0.326321    0.653693    0.358640  Uiso   1.00  Se
   Se040  1.0    0.337997    0.903646    0.359996  Uiso   1.00  Se
   Se041  1.0    0.581568    0.157703    0.355735  Uiso   1.00  Se
   Se042  1.0    0.583944    0.414945    0.351705  Uiso   1.00  Se
   Se043  1.0    0.564642    0.656013    0.359179  Uiso   1.00  Se
   Se044  1.0    0.567626    0.903909    0.358862  Uiso   1.00  Se
   Se045  1.0    0.824974    0.159605    0.353109  Uiso   1.00  Se
   Se046  1.0    0.833091    0.404267    0.355252  Uiso   1.00  Se
   Se047  1.0    0.822935    0.658734    0.352234  Uiso   1.00  Se
   Se048  1.0    0.802246    0.906002    0.361151  Uiso   1.00  Se
   Se049  1.0    0.168153    0.091627    0.045726  Uiso   1.00  Se
   Se050  1.0    0.170770    0.338895    0.045452  Uiso   1.00  Se
   Se051  1.0    0.170234    0.584972    0.045347  Uiso   1.00  Se
   Se052  1.0    0.170431    0.837946    0.047117  Uiso   1.00  Se
   Se053  1.0    0.425170    0.091924    0.044320  Uiso   1.00  Se
   Se054  1.0    0.424764    0.343087    0.041801  Uiso   1.00  Se
   Se055  1.0    0.424314    0.589682    0.042181  Uiso   1.00  Se
   Se056  1.0    0.424681    0.838498    0.043262  Uiso   1.00  Se
   Se057  1.0    0.675122    0.090380    0.044450  Uiso   1.00  Se
   Se058  1.0    0.671745    0.343165    0.041807  Uiso   1.00  Se
   Se059  1.0    0.670981    0.590458    0.041400  Uiso   1.00  Se
   Se060  1.0    0.670987    0.836573    0.042275  Uiso   1.00  Se
   Se061  1.0    0.917843    0.086234    0.044217  Uiso   1.00  Se
   Se062  1.0    0.919845    0.338983    0.044699  Uiso   1.00  Se
   Se063  1.0    0.919005    0.589819    0.042946  Uiso   1.00  Se
   Se064  1.0    0.917461    0.837132    0.042823  Uiso   1.00  Se
    V001  1.0    0.990216    0.993593    0.097553  Uiso   1.00   V
    V002  1.0   -0.003956    0.247798    0.098662  Uiso   1.00   V
    V003  1.0   -0.005027    0.506600    0.097199  Uiso   1.00   V
    V004  1.0   -0.008935    0.751512    0.096819  Uiso   1.00   V
    V005  1.0    0.260124    0.016236    0.094498  Uiso   1.00   V
    V006  1.0    0.269184    0.267983    0.096235  Uiso   1.00   V
    V007  1.0    0.267698    0.507612    0.096733  Uiso   1.00   V
    V008  1.0    0.263412    0.751625    0.095678  Uiso   1.00   V
    V009  1.0    0.512692    1.005439    0.096084  Uiso   1.00   V
    V010  1.0    0.510560    0.267625    0.096020  Uiso   1.00   V
    V011  1.0    0.511164    0.511122    0.096444  Uiso   1.00   V
    V012  1.0    0.510318    0.752124    0.096691  Uiso   1.00   V
    V013  1.0    0.750068    0.992699    0.097334  Uiso   1.00   V
    V014  1.0    0.749407    0.263601    0.096345  Uiso   1.00   V
    V015  1.0    0.748609    0.509837    0.096544  Uiso   1.00   V
    V016  1.0    0.746498    0.747916    0.097143  Uiso   1.00   V
    V017  1.0    0.943829    0.990118    0.304920  Uiso   1.00   V
    V018  1.0    0.985776    0.261146    0.299048  Uiso   1.00   V
    V019  1.0    1.008378    0.499358    0.301950  Uiso   1.00   V
    V020  1.0    1.001761    0.721195    0.308854  Uiso   1.00   V
    V021  1.0    0.274108    0.979560    0.302334  Uiso   1.00   V
    V022  1.0    0.271706    0.273046    0.298313  Uiso   1.00   V
    V023  1.0    0.246989    0.502067    0.300837  Uiso   1.00   V
    V024  1.0    0.257476    0.740328    0.303647  Uiso   1.00   V
    V025  1.0    0.495508   -0.016956    0.301896  Uiso   1.00   V
    V026  1.0    0.515151    0.247947    0.302475  Uiso   1.00   V
    V027  1.0    0.489787    0.507171    0.301370  Uiso   1.00   V
    V028  1.0    0.483339    0.741303    0.302351  Uiso   1.00   V
    V029  1.0    0.716865   -0.013269    0.302496  Uiso   1.00   V
    V030  1.0    0.735715    0.232361    0.300816  Uiso   1.00   V
    V031  1.0    0.759274    0.481921    0.303389  Uiso   1.00   V
    V032  1.0    0.717256    0.748068    0.305266  Uiso   1.00   V
   Cr001  1.0    0.144092    0.053457    0.333218  Uiso   1.00  Cr
