data_created_by_vaspkit_code
_audit_creation_date          Mon Apr 10 11:33:23 2023
_pd_phase_name                     'CIF files'
_cell_length_a                    13.29870033
_cell_length_b                    13.29870033
_cell_length_c                    30.00000000
_cell_angle_alpha                     90.0000
_cell_angle_beta                      90.0000
_cell_angle_gamma                    120.0000
_symmetry_space_group_name_H-M           'P 1'
_symmetry_Int_Tables_number            1
loop_
_symmetry_equiv_pos_as_xyz
    'x, y, z'
loop_
   _atom_site_label
   _atom_site_occupancy
   _atom_site_fract_x
   _atom_site_fract_y
   _atom_site_fract_z
   _atom_site_thermal_displace_type
   _atom_site_U_iso_or_equiv
   _atom_site_type_symbol
   Se001  1.0    0.085088    0.168511    0.145124  Uiso   1.00  Se
   Se002  1.0    0.084434    0.417136    0.144264  Uiso   1.00  Se
   Se003  1.0    0.085264    0.667581    0.144899  Uiso   1.00  Se
   Se004  1.0    0.085713    0.918605    0.146284  Uiso   1.00  Se
   Se005  1.0    0.340953    0.172652    0.149543  Uiso   1.00  Se
   Se006  1.0    0.338506    0.419864    0.150004  Uiso   1.00  Se
   Se007  1.0    0.337628    0.668208    0.148979  Uiso   1.00  Se
   Se008  1.0    0.340018    0.919297    0.148160  Uiso   1.00  Se
   Se009  1.0    0.583539    0.167044    0.147347  Uiso   1.00  Se
   Se010  1.0    0.584979    0.419360    0.150636  Uiso   1.00  Se
   Se011  1.0    0.583458    0.666534    0.151620  Uiso   1.00  Se
   Se012  1.0    0.583562    0.915557    0.149763  Uiso   1.00  Se
   Se013  1.0    0.827989    0.164879    0.147781  Uiso   1.00  Se
   Se014  1.0    0.829654    0.414660    0.147748  Uiso   1.00  Se
   Se015  1.0    0.828110    0.664249    0.151010  Uiso   1.00  Se
   Se016  1.0    0.827645    0.914468    0.150853  Uiso   1.00  Se
   Se017  1.0    0.176039    0.111515    0.250375  Uiso   1.00  Se
   Se018  1.0    0.163690    0.342929    0.248257  Uiso   1.00  Se
   Se019  1.0    0.163857    0.578757    0.246887  Uiso   1.00  Se
   Se020  1.0    0.174748    0.819143    0.247911  Uiso   1.00  Se
   Se021  1.0    0.428086    0.088079    0.246251  Uiso   1.00  Se
   Se022  1.0    0.424292    0.343353    0.254435  Uiso   1.00  Se
   Se023  1.0    0.411436    0.587516    0.248857  Uiso   1.00  Se
   Se024  1.0    0.415946    0.832778    0.248464  Uiso   1.00  Se
   Se025  1.0    0.664239    0.083207    0.247311  Uiso   1.00  Se
   Se026  1.0    0.670935    0.329689    0.245931  Uiso   1.00  Se
   Se027  1.0    0.658513    0.578725    0.255639  Uiso   1.00  Se
   Se028  1.0    0.653465    0.834437    0.249890  Uiso   1.00  Se
   Se029  1.0    0.905255    0.090167    0.248346  Uiso   1.00  Se
   Se030  1.0    0.915376    0.333224    0.246326  Uiso   1.00  Se
   Se031  1.0    0.912366    0.571045    0.245695  Uiso   1.00  Se
   Se032  1.0    0.886078    0.824027    0.250329  Uiso   1.00  Se
   Se033  1.0    0.084966    0.172674    0.352681  Uiso   1.00  Se
   Se034  1.0    0.081911    0.417481    0.357749  Uiso   1.00  Se
   Se035  1.0    0.083741    0.661656    0.354432  Uiso   1.00  Se
   Se036  1.0    0.081535    0.916519    0.337416  Uiso   1.00  Se
   Se037  1.0    0.340183    0.176723    0.350197  Uiso   1.00  Se
   Se038  1.0    0.330570    0.425090    0.359872  Uiso   1.00  Se
   Se039  1.0    0.329447    0.665131    0.360122  Uiso   1.00  Se
   Se040  1.0    0.333100    0.913381    0.353107  Uiso   1.00  Se
   Se041  1.0    0.588063    0.164899    0.356173  Uiso   1.00  Se
   Se042  1.0    0.583786    0.417873    0.350548  Uiso   1.00  Se
   Se043  1.0    0.572781    0.668424    0.360926  Uiso   1.00  Se
   Se044  1.0    0.577672    0.915968    0.358407  Uiso   1.00  Se
   Se045  1.0    0.833029    0.166489    0.356433  Uiso   1.00  Se
   Se046  1.0    0.835062    0.411516    0.356274  Uiso   1.00  Se
   Se047  1.0    0.825157    0.661435    0.349740  Uiso   1.00  Se
   Se048  1.0    0.823369    0.915832    0.355957  Uiso   1.00  Se
   Se049  1.0    0.166823    0.084024    0.048291  Uiso   1.00  Se
   Se050  1.0    0.168328    0.333818    0.046106  Uiso   1.00  Se
   Se051  1.0    0.168596    0.583491    0.045645  Uiso   1.00  Se
   Se052  1.0    0.166826    0.835225    0.048380  Uiso   1.00  Se
   Se053  1.0    0.425462    0.088649    0.042759  Uiso   1.00  Se
   Se054  1.0    0.423704    0.339541    0.041954  Uiso   1.00  Se
   Se055  1.0    0.423277    0.586240    0.041929  Uiso   1.00  Se
   Se056  1.0    0.423227    0.834224    0.041831  Uiso   1.00  Se
   Se057  1.0    0.669610    0.082964    0.041357  Uiso   1.00  Se
   Se058  1.0    0.669475    0.337708    0.041162  Uiso   1.00  Se
   Se059  1.0    0.668962    0.586417    0.041847  Uiso   1.00  Se
   Se060  1.0    0.668598    0.832240    0.041765  Uiso   1.00  Se
   Se061  1.0    0.914066    0.080758    0.042593  Uiso   1.00  Se
   Se062  1.0    0.915485    0.332997    0.042029  Uiso   1.00  Se
   Se063  1.0    0.914907    0.584452    0.042590  Uiso   1.00  Se
   Se064  1.0    0.914060    0.832576    0.043622  Uiso   1.00  Se
    V001  1.0    0.983060    0.991901    0.097999  Uiso   1.00   V
    V002  1.0    0.985191    0.241776    0.096182  Uiso   1.00   V
    V003  1.0    0.987439    0.495221    0.095909  Uiso   1.00   V
    V004  1.0    0.982989    0.742408    0.097761  Uiso   1.00   V
    V005  1.0    0.273033    0.014363    0.095922  Uiso   1.00   V
    V006  1.0    0.268782    0.262021    0.096000  Uiso   1.00   V
    V007  1.0    0.266170    0.506857    0.095889  Uiso   1.00   V
    V008  1.0    0.266464    0.755835    0.095242  Uiso   1.00   V
    V009  1.0    0.510591   -0.001549    0.095319  Uiso   1.00   V
    V010  1.0    0.511039    0.263842    0.095798  Uiso   1.00   V
    V011  1.0    0.509580    0.508634    0.096615  Uiso   1.00   V
    V012  1.0    0.509184    0.749913    0.096407  Uiso   1.00   V
    V013  1.0    0.743196    0.992116    0.096096  Uiso   1.00   V
    V014  1.0    0.742351    0.248051    0.094807  Uiso   1.00   V
    V015  1.0    0.743594    0.500994    0.096295  Uiso   1.00   V
    V016  1.0    0.742950    0.746105    0.097335  Uiso   1.00   V
    V017  1.0    0.973855    0.015050    0.302450  Uiso   1.00   V
    V018  1.0    0.996399    0.263352    0.302575  Uiso   1.00   V
    V019  1.0    0.001388    0.490160    0.301340  Uiso   1.00   V
    V020  1.0    0.985426    0.712555    0.301911  Uiso   1.00   V
    V021  1.0    0.285599    0.017729    0.302046  Uiso   1.00   V
    V022  1.0    0.257043    0.285390    0.301509  Uiso   1.00   V
    V023  1.0    0.247241    0.507299    0.302962  Uiso   1.00   V
    V024  1.0    0.256252    0.732938    0.301638  Uiso   1.00   V
    V025  1.0    0.507142    0.996865    0.301839  Uiso   1.00   V
    V026  1.0    0.520815    0.246839    0.301488  Uiso   1.00   V
    V027  1.0    0.486587    0.516283    0.304194  Uiso   1.00   V
    V028  1.0    0.487574    0.748844    0.303833  Uiso   1.00   V
    V029  1.0    0.734123    1.002043    0.303493  Uiso   1.00   V
    V030  1.0    0.755047    0.246476    0.301689  Uiso   1.00   V
    V031  1.0    0.754191    0.479696    0.301296  Uiso   1.00   V
    V032  1.0    0.716673    0.748266    0.303562  Uiso   1.00   V
   Cr001  1.0    0.080127    0.918119    0.259222  Uiso   1.00  Cr
