data_created_by_vaspkit_code
_audit_creation_date          Mon Apr 10 11:33:23 2023
_pd_phase_name                     'CIF files'
_cell_length_a                    13.29870033
_cell_length_b                    13.29870033
_cell_length_c                    30.00000000
_cell_angle_alpha                     90.0000
_cell_angle_beta                      90.0000
_cell_angle_gamma                    120.0000
_symmetry_space_group_name_H-M           'P 1'
_symmetry_Int_Tables_number            1
loop_
_symmetry_equiv_pos_as_xyz
    'x, y, z'
loop_
   _atom_site_label
   _atom_site_occupancy
   _atom_site_fract_x
   _atom_site_fract_y
   _atom_site_fract_z
   _atom_site_thermal_displace_type
   _atom_site_U_iso_or_equiv
   _atom_site_type_symbol
   Se001  1.0    0.079522    0.168855    0.144253  Uiso   1.00  Se
   Se002  1.0    0.079222    0.413022    0.143730  Uiso   1.00  Se
   Se003  1.0    0.080619    0.657225    0.143622  Uiso   1.00  Se
   Se004  1.0    0.080165    0.913781    0.135287  Uiso   1.00  Se
   Se005  1.0    0.338933    0.172459    0.152045  Uiso   1.00  Se
   Se006  1.0    0.334952    0.419704    0.150668  Uiso   1.00  Se
   Se007  1.0    0.334879    0.663952    0.148827  Uiso   1.00  Se
   Se008  1.0    0.340137    0.914897    0.148993  Uiso   1.00  Se
   Se009  1.0    0.580822    0.164605    0.146827  Uiso   1.00  Se
   Se010  1.0    0.581623    0.418805    0.151923  Uiso   1.00  Se
   Se011  1.0    0.580078    0.664838    0.152188  Uiso   1.00  Se
   Se012  1.0    0.581605    0.912815    0.149748  Uiso   1.00  Se
   Se013  1.0    0.823888    0.163852    0.145584  Uiso   1.00  Se
   Se014  1.0    0.824682    0.409347    0.146201  Uiso   1.00  Se
   Se015  1.0    0.823984    0.658154    0.149675  Uiso   1.00  Se
   Se016  1.0    0.822791    0.913692    0.149617  Uiso   1.00  Se
   Se017  1.0    0.175277    0.097444    0.249587  Uiso   1.00  Se
   Se018  1.0    0.166739    0.343687    0.246268  Uiso   1.00  Se
   Se019  1.0    0.162309    0.573721    0.245876  Uiso   1.00  Se
   Se020  1.0    0.172176    0.819545    0.240178  Uiso   1.00  Se
   Se021  1.0    0.427797    0.087179    0.243218  Uiso   1.00  Se
   Se022  1.0    0.422813    0.345775    0.255476  Uiso   1.00  Se
   Se023  1.0    0.415841    0.591449    0.253961  Uiso   1.00  Se
   Se024  1.0    0.420839    0.837074    0.249778  Uiso   1.00  Se
   Se025  1.0    0.670833    0.093642    0.243914  Uiso   1.00  Se
   Se026  1.0    0.666417    0.335482    0.244692  Uiso   1.00  Se
   Se027  1.0    0.662133    0.585278    0.254297  Uiso   1.00  Se
   Se028  1.0    0.660113    0.843550    0.249323  Uiso   1.00  Se
   Se029  1.0    0.914429    0.098078    0.240067  Uiso   1.00  Se
   Se030  1.0    0.911763    0.335699    0.242702  Uiso   1.00  Se
   Se031  1.0    0.910547    0.570854    0.242301  Uiso   1.00  Se
   Se032  1.0    0.894333    0.823020    0.244477  Uiso   1.00  Se
   Se033  1.0    0.078935    0.165584    0.346470  Uiso   1.00  Se
   Se034  1.0    0.074672    0.413947    0.356324  Uiso   1.00  Se
   Se035  1.0    0.082888    0.661815    0.351507  Uiso   1.00  Se
   Se036  1.0    0.078932    0.914592    0.335499  Uiso   1.00  Se
   Se037  1.0    0.327584    0.163858    0.343181  Uiso   1.00  Se
   Se038  1.0    0.332951    0.426153    0.358959  Uiso   1.00  Se
   Se039  1.0    0.330044    0.666785    0.357230  Uiso   1.00  Se
   Se040  1.0    0.336066    0.914909    0.349304  Uiso   1.00  Se
   Se041  1.0    0.586979    0.170871    0.355079  Uiso   1.00  Se
   Se042  1.0    0.584169    0.416726    0.350578  Uiso   1.00  Se
   Se043  1.0    0.591471    0.682828    0.360049  Uiso   1.00  Se
   Se044  1.0    0.594934    0.932329    0.355577  Uiso   1.00  Se
   Se045  1.0    0.836626    0.177188    0.354545  Uiso   1.00  Se
   Se046  1.0    0.833157    0.416385    0.355851  Uiso   1.00  Se
   Se047  1.0    0.839311    0.673296    0.343828  Uiso   1.00  Se
   Se048  1.0    0.839812    0.932379    0.351081  Uiso   1.00  Se
   Se049  1.0    0.165646    0.083322    0.050376  Uiso   1.00  Se
   Se050  1.0    0.167230    0.330602    0.046048  Uiso   1.00  Se
   Se051  1.0    0.166599    0.580487    0.045133  Uiso   1.00  Se
   Se052  1.0    0.165748    0.832924    0.049929  Uiso   1.00  Se
   Se053  1.0    0.424532    0.088115    0.042729  Uiso   1.00  Se
   Se054  1.0    0.420164    0.337747    0.042717  Uiso   1.00  Se
   Se055  1.0    0.421692    0.583740    0.041523  Uiso   1.00  Se
   Se056  1.0    0.421675    0.831186    0.041228  Uiso   1.00  Se
   Se057  1.0    0.663088    0.079426    0.039091  Uiso   1.00  Se
   Se058  1.0    0.659774    0.332897    0.039895  Uiso   1.00  Se
   Se059  1.0    0.663622    0.582855    0.041958  Uiso   1.00  Se
   Se060  1.0    0.664956    0.828969    0.041385  Uiso   1.00  Se
   Se061  1.0    0.907171    0.081661    0.038887  Uiso   1.00  Se
   Se062  1.0    0.908561    0.328093    0.037895  Uiso   1.00  Se
   Se063  1.0    0.905298    0.571930    0.039234  Uiso   1.00  Se
   Se064  1.0    0.911638    0.829350    0.046217  Uiso   1.00  Se
    V001  1.0    0.971989    1.003811    0.095497  Uiso   1.00   V
    V002  1.0    0.980286    0.246008    0.093679  Uiso   1.00   V
    V003  1.0    0.980650    0.481883    0.093381  Uiso   1.00   V
    V004  1.0    0.973479    0.715219    0.095520  Uiso   1.00   V
    V005  1.0    0.282353    0.016880    0.098019  Uiso   1.00   V
    V006  1.0    0.268834    0.259863    0.097408  Uiso   1.00   V
    V007  1.0    0.264265    0.502903    0.094797  Uiso   1.00   V
    V008  1.0    0.267239    0.752858    0.094669  Uiso   1.00   V
    V009  1.0    0.509269   -0.005120    0.095322  Uiso   1.00   V
    V010  1.0    0.507016    0.264206    0.097214  Uiso   1.00   V
    V011  1.0    0.505735    0.507161    0.097261  Uiso   1.00   V
    V012  1.0    0.506687    0.746851    0.096256  Uiso   1.00   V
    V013  1.0    0.737139    0.993926    0.094471  Uiso   1.00   V
    V014  1.0    0.735246    0.244546    0.093064  Uiso   1.00   V
    V015  1.0    0.734740    0.491557    0.095598  Uiso   1.00   V
    V016  1.0    0.738445    0.743080    0.096797  Uiso   1.00   V
    V017  1.0    0.979818    0.008494    0.291227  Uiso   1.00   V
    V018  1.0   -0.007172    0.261676    0.297789  Uiso   1.00   V
    V019  1.0   -0.009320    0.486908    0.299315  Uiso   1.00   V
    V020  1.0    0.005813    0.726453    0.293900  Uiso   1.00   V
    V021  1.0    0.267975    0.989880    0.293556  Uiso   1.00   V
    V022  1.0    0.253808    0.285916    0.302224  Uiso   1.00   V
    V023  1.0    0.234053    0.498264    0.303479  Uiso   1.00   V
    V024  1.0    0.248007    0.730333    0.298803  Uiso   1.00   V
    V025  1.0    0.520125    1.012667    0.299816  Uiso   1.00   V
    V026  1.0    0.512509    0.243470    0.298895  Uiso   1.00   V
    V027  1.0    0.504250    0.526958    0.305727  Uiso   1.00   V
    V028  1.0    0.498408    0.763821    0.305075  Uiso   1.00   V
    V029  1.0    0.757437    1.024748    0.298377  Uiso   1.00   V
    V030  1.0    0.755340    0.255942    0.299265  Uiso   1.00   V
    V031  1.0    0.755116    0.487533    0.300005  Uiso   1.00   V
    V032  1.0    0.735924    0.766774    0.301116  Uiso   1.00   V
   Cr001  1.0    0.077642    0.920101    0.212701  Uiso   1.00  Cr
