data_created_by_vaspkit_code
_audit_creation_date          Mon Apr 10 11:33:23 2023
_pd_phase_name                     'CIF files'
_cell_length_a                    13.29870033
_cell_length_b                    13.29870033
_cell_length_c                    30.00000000
_cell_angle_alpha                     90.0000
_cell_angle_beta                      90.0000
_cell_angle_gamma                    120.0000
_symmetry_space_group_name_H-M           'P 1'
_symmetry_Int_Tables_number            1
loop_
_symmetry_equiv_pos_as_xyz
    'x, y, z'
loop_
   _atom_site_label
   _atom_site_occupancy
   _atom_site_fract_x
   _atom_site_fract_y
   _atom_site_fract_z
   _atom_site_thermal_displace_type
   _atom_site_U_iso_or_equiv
   _atom_site_type_symbol
   Se001  1.0    0.083432    0.171515    0.144897  Uiso   1.00  Se
   Se002  1.0    0.083163    0.418586    0.145609  Uiso   1.00  Se
   Se003  1.0    0.083740    0.665801    0.144660  Uiso   1.00  Se
   Se004  1.0    0.084039    0.920465    0.138215  Uiso   1.00  Se
   Se005  1.0    0.340711    0.174306    0.150038  Uiso   1.00  Se
   Se006  1.0    0.337856    0.421690    0.150225  Uiso   1.00  Se
   Se007  1.0    0.337521    0.669884    0.149437  Uiso   1.00  Se
   Se008  1.0    0.340582    0.921314    0.149081  Uiso   1.00  Se
   Se009  1.0    0.582386    0.168204    0.148419  Uiso   1.00  Se
   Se010  1.0    0.584267    0.421710    0.151944  Uiso   1.00  Se
   Se011  1.0    0.584123    0.668741    0.152190  Uiso   1.00  Se
   Se012  1.0    0.583811    0.916973    0.150929  Uiso   1.00  Se
   Se013  1.0    0.827626    0.166998    0.148727  Uiso   1.00  Se
   Se014  1.0    0.827879    0.414534    0.148960  Uiso   1.00  Se
   Se015  1.0    0.828291    0.665267    0.150982  Uiso   1.00  Se
   Se016  1.0    0.828670    0.917805    0.150415  Uiso   1.00  Se
   Se017  1.0    0.180251    0.096056    0.258970  Uiso   1.00  Se
   Se018  1.0    0.162778    0.336771    0.248237  Uiso   1.00  Se
   Se019  1.0    0.163898    0.580045    0.246934  Uiso   1.00  Se
   Se020  1.0    0.170896    0.826915    0.245171  Uiso   1.00  Se
   Se021  1.0    0.422476    0.080625    0.247907  Uiso   1.00  Se
   Se022  1.0    0.419132    0.336775    0.257466  Uiso   1.00  Se
   Se023  1.0    0.409609    0.585775    0.249805  Uiso   1.00  Se
   Se024  1.0    0.414778    0.832750    0.249085  Uiso   1.00  Se
   Se025  1.0    0.669212    0.083370    0.247584  Uiso   1.00  Se
   Se026  1.0    0.670268    0.329358    0.247905  Uiso   1.00  Se
   Se027  1.0    0.660808    0.579842    0.258679  Uiso   1.00  Se
   Se028  1.0    0.658917    0.833860    0.250811  Uiso   1.00  Se
   Se029  1.0    0.914153    0.084362    0.248966  Uiso   1.00  Se
   Se030  1.0    0.917776    0.331485    0.246421  Uiso   1.00  Se
   Se031  1.0    0.918068    0.577915    0.247253  Uiso   1.00  Se
   Se032  1.0    0.902777    0.820462    0.261386  Uiso   1.00  Se
   Se033  1.0    0.081048    0.170729    0.359064  Uiso   1.00  Se
   Se034  1.0    0.080037    0.414178    0.358032  Uiso   1.00  Se
   Se035  1.0    0.083042    0.660486    0.356536  Uiso   1.00  Se
   Se036  1.0    0.084787    0.916429    0.348651  Uiso   1.00  Se
   Se037  1.0    0.333662    0.166384    0.348000  Uiso   1.00  Se
   Se038  1.0    0.326563    0.420676    0.360399  Uiso   1.00  Se
   Se039  1.0    0.327819    0.664015    0.358062  Uiso   1.00  Se
   Se040  1.0    0.337291    0.911633    0.355647  Uiso   1.00  Se
   Se041  1.0    0.589977    0.162950    0.356468  Uiso   1.00  Se
   Se042  1.0    0.582899    0.415448    0.348911  Uiso   1.00  Se
   Se043  1.0    0.570082    0.665525    0.360925  Uiso   1.00  Se
   Se044  1.0    0.583584    0.916866    0.357467  Uiso   1.00  Se
   Se045  1.0    0.835013    0.166253    0.357926  Uiso   1.00  Se
   Se046  1.0    0.837108    0.411120    0.356727  Uiso   1.00  Se
   Se047  1.0    0.830956    0.664920    0.348699  Uiso   1.00  Se
   Se048  1.0    0.829632    0.917920    0.358149  Uiso   1.00  Se
   Se049  1.0    0.166647    0.085717    0.048914  Uiso   1.00  Se
   Se050  1.0    0.168322    0.336414    0.046884  Uiso   1.00  Se
   Se051  1.0    0.168029    0.585679    0.046819  Uiso   1.00  Se
   Se052  1.0    0.166184    0.836447    0.048927  Uiso   1.00  Se
   Se053  1.0    0.428319    0.091968    0.042382  Uiso   1.00  Se
   Se054  1.0    0.424392    0.342540    0.042366  Uiso   1.00  Se
   Se055  1.0    0.423708    0.588657    0.042419  Uiso   1.00  Se
   Se056  1.0    0.423890    0.835898    0.042218  Uiso   1.00  Se
   Se057  1.0    0.667314    0.084487    0.041164  Uiso   1.00  Se
   Se058  1.0    0.667742    0.338105    0.041510  Uiso   1.00  Se
   Se059  1.0    0.668312    0.587463    0.042439  Uiso   1.00  Se
   Se060  1.0    0.668116    0.834749    0.042261  Uiso   1.00  Se
   Se061  1.0    0.909963    0.087405    0.040480  Uiso   1.00  Se
   Se062  1.0    0.912409    0.333650    0.040969  Uiso   1.00  Se
   Se063  1.0    0.910409    0.578405    0.041036  Uiso   1.00  Se
   Se064  1.0    0.914695    0.834481    0.045174  Uiso   1.00  Se
    V001  1.0    0.976491    1.006450    0.095430  Uiso   1.00   V
    V002  1.0    0.983826    0.249761    0.096170  Uiso   1.00   V
    V003  1.0    0.983412    0.488736    0.096149  Uiso   1.00   V
    V004  1.0    0.976910    0.725779    0.096255  Uiso   1.00   V
    V005  1.0    0.281181    0.018852    0.095942  Uiso   1.00   V
    V006  1.0    0.269970    0.263768    0.096070  Uiso   1.00   V
    V007  1.0    0.267024    0.510088    0.096086  Uiso   1.00   V
    V008  1.0    0.268733    0.760549    0.095670  Uiso   1.00   V
    V009  1.0    0.511024    0.999066    0.096288  Uiso   1.00   V
    V010  1.0    0.511673    0.267527    0.096769  Uiso   1.00   V
    V011  1.0    0.510049    0.511330    0.097320  Uiso   1.00   V
    V012  1.0    0.509854    0.751933    0.097128  Uiso   1.00   V
    V013  1.0    0.740975    0.997545    0.096420  Uiso   1.00   V
    V014  1.0    0.740046    0.247182    0.095828  Uiso   1.00   V
    V015  1.0    0.741132    0.498277    0.096915  Uiso   1.00   V
    V016  1.0    0.742700    0.748499    0.096953  Uiso   1.00   V
    V017  1.0    0.989907    0.016088    0.305208  Uiso   1.00   V
    V018  1.0   -0.004547    0.255201    0.302662  Uiso   1.00   V
    V019  1.0    0.002401    0.489697    0.301335  Uiso   1.00   V
    V020  1.0    0.013085    0.735838    0.300881  Uiso   1.00   V
    V021  1.0    0.264439    0.983926    0.301050  Uiso   1.00   V
    V022  1.0    0.240832    0.272280    0.304902  Uiso   1.00   V
    V023  1.0    0.238059    0.500823    0.302772  Uiso   1.00   V
    V024  1.0    0.248187    0.736230    0.302118  Uiso   1.00   V
    V025  1.0    0.512050    0.998517    0.301703  Uiso   1.00   V
    V026  1.0    0.514200    0.236004    0.302099  Uiso   1.00   V
    V027  1.0    0.479739    0.509066    0.304568  Uiso   1.00   V
    V028  1.0    0.488400    0.753097    0.303569  Uiso   1.00   V
    V029  1.0    0.748272    1.008340    0.303335  Uiso   1.00   V
    V030  1.0    0.761061    0.246750    0.301500  Uiso   1.00   V
    V031  1.0    0.763041    0.485362    0.301672  Uiso   1.00   V
    V032  1.0    0.718790    0.752283    0.306872  Uiso   1.00   V
   Cr001  1.0    0.068792    0.927403    0.218465  Uiso   1.00  Cr
