data_created_by_vaspkit_code
_audit_creation_date          Mon Apr 10 11:33:24 2023
_pd_phase_name                     'CIF files'
_cell_length_a                    13.29870033
_cell_length_b                    13.29870033
_cell_length_c                    30.00000000
_cell_angle_alpha                     90.0000
_cell_angle_beta                      90.0000
_cell_angle_gamma                    120.0000
_symmetry_space_group_name_H-M           'P 1'
_symmetry_Int_Tables_number            1
loop_
_symmetry_equiv_pos_as_xyz
    'x, y, z'
loop_
   _atom_site_label
   _atom_site_occupancy
   _atom_site_fract_x
   _atom_site_fract_y
   _atom_site_fract_z
   _atom_site_thermal_displace_type
   _atom_site_U_iso_or_equiv
   _atom_site_type_symbol
   Se001  1.0    0.085082    0.168312    0.145316  Uiso   1.00  Se
   Se002  1.0    0.083616    0.417711    0.143295  Uiso   1.00  Se
   Se003  1.0    0.084953    0.665551    0.143829  Uiso   1.00  Se
   Se004  1.0    0.086034    0.915866    0.145695  Uiso   1.00  Se
   Se005  1.0    0.344595    0.173574    0.154128  Uiso   1.00  Se
   Se006  1.0    0.341213    0.421658    0.153715  Uiso   1.00  Se
   Se007  1.0    0.339299    0.669525    0.152370  Uiso   1.00  Se
   Se008  1.0    0.343143    0.920523    0.151980  Uiso   1.00  Se
   Se009  1.0    0.582804    0.166795    0.150695  Uiso   1.00  Se
   Se010  1.0    0.585093    0.421358    0.154376  Uiso   1.00  Se
   Se011  1.0    0.581716    0.665853    0.154566  Uiso   1.00  Se
   Se012  1.0    0.581788    0.914130    0.152835  Uiso   1.00  Se
   Se013  1.0    0.823760    0.163458    0.150947  Uiso   1.00  Se
   Se014  1.0    0.826396    0.413664    0.150750  Uiso   1.00  Se
   Se015  1.0    0.825652    0.662807    0.154230  Uiso   1.00  Se
   Se016  1.0    0.819231    0.908518    0.155119  Uiso   1.00  Se
   Se017  1.0    0.170168    0.084134    0.254305  Uiso   1.00  Se
   Se018  1.0    0.162845    0.337193    0.245770  Uiso   1.00  Se
   Se019  1.0    0.163735    0.578642    0.245624  Uiso   1.00  Se
   Se020  1.0    0.171020    0.826426    0.245872  Uiso   1.00  Se
   Se021  1.0    0.422620    0.079477    0.248020  Uiso   1.00  Se
   Se022  1.0    0.419402    0.334449    0.256171  Uiso   1.00  Se
   Se023  1.0    0.412732    0.586336    0.249250  Uiso   1.00  Se
   Se024  1.0    0.416009    0.833205    0.249305  Uiso   1.00  Se
   Se025  1.0    0.667659    0.085870    0.247165  Uiso   1.00  Se
   Se026  1.0    0.669774    0.330475    0.247630  Uiso   1.00  Se
   Se027  1.0    0.665905    0.582289    0.256705  Uiso   1.00  Se
   Se028  1.0    0.660303    0.836542    0.249053  Uiso   1.00  Se
   Se029  1.0    0.910712    0.091482    0.244881  Uiso   1.00  Se
   Se030  1.0    0.915863    0.334147    0.245434  Uiso   1.00  Se
   Se031  1.0    0.919555    0.578342    0.246285  Uiso   1.00  Se
   Se032  1.0    0.916770    0.831688    0.254684  Uiso   1.00  Se
   Se033  1.0    0.080630    0.169165    0.355068  Uiso   1.00  Se
   Se034  1.0    0.082099    0.413393    0.356647  Uiso   1.00  Se
   Se035  1.0    0.085674    0.659477    0.355740  Uiso   1.00  Se
   Se036  1.0    0.082257    0.917253    0.345039  Uiso   1.00  Se
   Se037  1.0    0.329290    0.163652    0.345492  Uiso   1.00  Se
   Se038  1.0    0.328989    0.417850    0.356926  Uiso   1.00  Se
   Se039  1.0    0.330802    0.661606    0.356554  Uiso   1.00  Se
   Se040  1.0    0.337865    0.908923    0.354726  Uiso   1.00  Se
   Se041  1.0    0.590021    0.163843    0.356561  Uiso   1.00  Se
   Se042  1.0    0.584604    0.415925    0.348983  Uiso   1.00  Se
   Se043  1.0    0.580146    0.668751    0.357420  Uiso   1.00  Se
   Se044  1.0    0.587304    0.917280    0.356622  Uiso   1.00  Se
   Se045  1.0    0.836796    0.167721    0.356644  Uiso   1.00  Se
   Se046  1.0    0.838102    0.412669    0.356411  Uiso   1.00  Se
   Se047  1.0    0.836131    0.669876    0.346134  Uiso   1.00  Se
   Se048  1.0    0.833190    0.921029    0.355407  Uiso   1.00  Se
   Se049  1.0    0.165004    0.082747    0.054961  Uiso   1.00  Se
   Se050  1.0    0.166254    0.330124    0.053866  Uiso   1.00  Se
   Se051  1.0    0.168679    0.584075    0.051017  Uiso   1.00  Se
   Se052  1.0    0.165638    0.836348    0.054508  Uiso   1.00  Se
   Se053  1.0    0.428941    0.091077    0.045274  Uiso   1.00  Se
   Se054  1.0    0.426197    0.340523    0.044260  Uiso   1.00  Se
   Se055  1.0    0.425433    0.587331    0.043589  Uiso   1.00  Se
   Se056  1.0    0.426178    0.836157    0.043439  Uiso   1.00  Se
   Se057  1.0    0.670025    0.082720    0.043378  Uiso   1.00  Se
   Se058  1.0    0.669197    0.338394    0.043446  Uiso   1.00  Se
   Se059  1.0    0.668706    0.586607    0.043353  Uiso   1.00  Se
   Se060  1.0    0.669075    0.832279    0.043356  Uiso   1.00  Se
   Se061  1.0    0.912161    0.078971    0.044593  Uiso   1.00  Se
   Se062  1.0    0.911395    0.331249    0.042580  Uiso   1.00  Se
   Se063  1.0    0.911138    0.582150    0.043074  Uiso   1.00  Se
   Se064  1.0    0.911465    0.830835    0.044932  Uiso   1.00  Se
    V001  1.0    0.971141    0.984413    0.100180  Uiso   1.00   V
    V002  1.0    0.971055    0.238991    0.097705  Uiso   1.00   V
    V003  1.0    0.975457    0.489147    0.097346  Uiso   1.00   V
    V004  1.0    0.970810    0.732682    0.098960  Uiso   1.00   V
    V005  1.0    0.284556    0.019273    0.099365  Uiso   1.00   V
    V006  1.0    0.282526    0.266086    0.100206  Uiso   1.00   V
    V007  1.0    0.276713    0.513002    0.099026  Uiso   1.00   V
    V008  1.0    0.277441    0.763025    0.098433  Uiso   1.00   V
    V009  1.0    0.514394    0.999142    0.098083  Uiso   1.00   V
    V010  1.0    0.515459    0.267618    0.099374  Uiso   1.00   V
    V011  1.0    0.512754    0.511189    0.099233  Uiso   1.00   V
    V012  1.0    0.511892    0.751290    0.098780  Uiso   1.00   V
    V013  1.0    0.740763    0.989662    0.098589  Uiso   1.00   V
    V014  1.0    0.738338    0.246235    0.097238  Uiso   1.00   V
    V015  1.0    0.740661    0.501967    0.098842  Uiso   1.00   V
    V016  1.0    0.739715    0.744602    0.099407  Uiso   1.00   V
    V017  1.0    0.986728    0.015587    0.299820  Uiso   1.00   V
    V018  1.0    0.995112    0.255398    0.300593  Uiso   1.00   V
    V019  1.0    0.001565    0.488811    0.300767  Uiso   1.00   V
    V020  1.0    0.016440    0.733914    0.299794  Uiso   1.00   V
    V021  1.0    0.265283    0.980727    0.300635  Uiso   1.00   V
    V022  1.0    0.238128    0.267318    0.301040  Uiso   1.00   V
    V023  1.0    0.238695    0.498033    0.301158  Uiso   1.00   V
    V024  1.0    0.247841    0.732382    0.300626  Uiso   1.00   V
    V025  1.0    0.515252    0.000858    0.301917  Uiso   1.00   V
    V026  1.0    0.514416    0.236975    0.301567  Uiso   1.00   V
    V027  1.0    0.486309    0.510853    0.302654  Uiso   1.00   V
    V028  1.0    0.492104    0.753765    0.302762  Uiso   1.00   V
    V029  1.0    0.751101    0.010338    0.301411  Uiso   1.00   V
    V030  1.0    0.760602    0.248710    0.301220  Uiso   1.00   V
    V031  1.0    0.763711    0.486998    0.300974  Uiso   1.00   V
    V032  1.0    0.732065    0.761009    0.302295  Uiso   1.00   V
   Cr001  1.0    0.007141    0.000000    0.200000  Uiso   1.00  Cr
